<routes>
            <vType accel="1.0" decel="4.5" id="standard_car" length="5.0" minGap="2.5" maxSpeed="25" sigma="0.5" />

            <route id="W_E" edges= "west_edge_one east_edge_two"/>

            <route id="N_S" edges= "north_edge_one south_edge_two"/>

            <route id="E_W" edges= "east_edge_one  west_edge_two"/>

            <route id="S_N" edges= "south_edge_one north_edge_two"/> 
<vehicle id="E_W_0" type="standard_car" route="E_W" depart="0" departLane="random" departSpeed="10" />
<vehicle id="S_N_1" type="standard_car" route="S_N" depart="0" departLane="random" departSpeed="10" />
<vehicle id="W_E_2" type="standard_car" route="W_E" depart="0" departLane="random" departSpeed="10" />
<vehicle id="E_W_3" type="standard_car" route="E_W" depart="0" departLane="random" departSpeed="10" />
<vehicle id="W_E_4" type="standard_car" route="W_E" depart="0" departLane="random" departSpeed="10" />
<vehicle id="W_E_5" type="standard_car" route="W_E" depart="0" departLane="random" departSpeed="10" />
<vehicle id="W_E_6" type="standard_car" route="W_E" depart="0" departLane="random" departSpeed="10" />
<vehicle id="E_W_7" type="standard_car" route="E_W" depart="0" departLane="random" departSpeed="10" />
<vehicle id="E_W_8" type="standard_car" route="E_W" depart="0" departLane="random" departSpeed="10" />
<vehicle id="N_S_9" type="standard_car" route="N_S" depart="0" departLane="random" departSpeed="10" />
<vehicle id="E_W_10" type="standard_car" route="E_W" depart="0" departLane="random" departSpeed="10" />
<vehicle id="N_S_11" type="standard_car" route="N_S" depart="0" departLane="random" departSpeed="10" />
<vehicle id="E_W_12" type="standard_car" route="E_W" depart="0" departLane="random" departSpeed="10" />
<vehicle id="S_N_13" type="standard_car" route="S_N" depart="0" departLane="random" departSpeed="10" />
<vehicle id="W_E_14" type="standard_car" route="W_E" depart="0" departLane="random" departSpeed="10" />
<vehicle id="N_S_15" type="standard_car" route="N_S" depart="0" departLane="random" departSpeed="10" />
<vehicle id="E_W_16" type="standard_car" route="E_W" depart="0" departLane="random" departSpeed="10" />
<vehicle id="N_S_17" type="standard_car" route="N_S" depart="0" departLane="random" departSpeed="10" />
<vehicle id="W_E_18" type="standard_car" route="W_E" depart="0" departLane="random" departSpeed="10" />
<vehicle id="W_E_19" type="standard_car" route="W_E" depart="0" departLane="random" departSpeed="10" />
<vehicle id="S_N_20" type="standard_car" route="S_N" depart="0" departLane="random" departSpeed="10" />
<vehicle id="S_N_21" type="standard_car" route="S_N" depart="0" departLane="random" departSpeed="10" />
<vehicle id="E_W_22" type="standard_car" route="E_W" depart="0" departLane="random" departSpeed="10" />
<vehicle id="N_S_23" type="standard_car" route="N_S" depart="0" departLane="random" departSpeed="10" />
<vehicle id="S_N_24" type="standard_car" route="S_N" depart="0" departLane="random" departSpeed="10" />
<vehicle id="S_N_25" type="standard_car" route="S_N" depart="0" departLane="random" departSpeed="10" />
<vehicle id="W_E_26" type="standard_car" route="W_E" depart="0" departLane="random" departSpeed="10" />
<vehicle id="W_E_27" type="standard_car" route="W_E" depart="0" departLane="random" departSpeed="10" />
<vehicle id="W_E_28" type="standard_car" route="W_E" depart="0" departLane="random" departSpeed="10" />
<vehicle id="S_N_29" type="standard_car" route="S_N" depart="0" departLane="random" departSpeed="10" />
<vehicle id="W_E_30" type="standard_car" route="W_E" depart="0" departLane="random" departSpeed="10" />
<vehicle id="E_W_31" type="standard_car" route="E_W" depart="0" departLane="random" departSpeed="10" />
<vehicle id="S_N_32" type="standard_car" route="S_N" depart="0" departLane="random" departSpeed="10" />
<vehicle id="N_S_33" type="standard_car" route="N_S" depart="0" departLane="random" departSpeed="10" />
<vehicle id="N_S_34" type="standard_car" route="N_S" depart="0" departLane="random" departSpeed="10" />
<vehicle id="E_W_35" type="standard_car" route="E_W" depart="0" departLane="random" departSpeed="10" />
<vehicle id="N_S_36" type="standard_car" route="N_S" depart="0" departLane="random" departSpeed="10" />
<vehicle id="S_N_37" type="standard_car" route="S_N" depart="0" departLane="random" departSpeed="10" />
<vehicle id="W_E_38" type="standard_car" route="W_E" depart="0" departLane="random" departSpeed="10" />
<vehicle id="S_N_39" type="standard_car" route="S_N" depart="0" departLane="random" departSpeed="10" />
<vehicle id="S_N_40" type="standard_car" route="S_N" depart="0" departLane="random" departSpeed="10" />
<vehicle id="S_N_41" type="standard_car" route="S_N" depart="0" departLane="random" departSpeed="10" />
<vehicle id="E_W_42" type="standard_car" route="E_W" depart="0" departLane="random" departSpeed="10" />
<vehicle id="S_N_43" type="standard_car" route="S_N" depart="0" departLane="random" departSpeed="10" />
<vehicle id="W_E_44" type="standard_car" route="W_E" depart="0" departLane="random" departSpeed="10" />
<vehicle id="E_W_45" type="standard_car" route="E_W" depart="0" departLane="random" departSpeed="10" />
<vehicle id="S_N_46" type="standard_car" route="S_N" depart="0" departLane="random" departSpeed="10" />
<vehicle id="E_W_47" type="standard_car" route="E_W" depart="0" departLane="random" departSpeed="10" />
<vehicle id="E_W_48" type="standard_car" route="E_W" depart="0" departLane="random" departSpeed="10" />
<vehicle id="W_E_49" type="standard_car" route="W_E" depart="0" departLane="random" departSpeed="10" />
<vehicle id="W_E_50" type="standard_car" route="W_E" depart="0" departLane="random" departSpeed="10" />
<vehicle id="N_S_51" type="standard_car" route="N_S" depart="0" departLane="random" departSpeed="10" />
<vehicle id="E_W_52" type="standard_car" route="E_W" depart="0" departLane="random" departSpeed="10" />
<vehicle id="E_W_53" type="standard_car" route="E_W" depart="0" departLane="random" departSpeed="10" />
<vehicle id="N_S_54" type="standard_car" route="N_S" depart="0" departLane="random" departSpeed="10" />
<vehicle id="W_E_55" type="standard_car" route="W_E" depart="0" departLane="random" departSpeed="10" />
<vehicle id="N_S_56" type="standard_car" route="N_S" depart="0" departLane="random" departSpeed="10" />
<vehicle id="W_E_57" type="standard_car" route="W_E" depart="0" departLane="random" departSpeed="10" />
<vehicle id="N_S_58" type="standard_car" route="N_S" depart="0" departLane="random" departSpeed="10" />
<vehicle id="N_S_59" type="standard_car" route="N_S" depart="0" departLane="random" departSpeed="10" />
<vehicle id="W_E_60" type="standard_car" route="W_E" depart="0" departLane="random" departSpeed="10" />
<vehicle id="E_W_61" type="standard_car" route="E_W" depart="0" departLane="random" departSpeed="10" />
<vehicle id="N_S_62" type="standard_car" route="N_S" depart="0" departLane="random" departSpeed="10" />
<vehicle id="E_W_63" type="standard_car" route="E_W" depart="0" departLane="random" departSpeed="10" />
<vehicle id="W_E_64" type="standard_car" route="W_E" depart="0" departLane="random" departSpeed="10" />
<vehicle id="N_S_65" type="standard_car" route="N_S" depart="0" departLane="random" departSpeed="10" />
<vehicle id="N_S_66" type="standard_car" route="N_S" depart="0" departLane="random" departSpeed="10" />
<vehicle id="N_S_67" type="standard_car" route="N_S" depart="0" departLane="random" departSpeed="10" />
<vehicle id="S_N_68" type="standard_car" route="S_N" depart="0" departLane="random" departSpeed="10" />
<vehicle id="N_S_69" type="standard_car" route="N_S" depart="0" departLane="random" departSpeed="10" />
<vehicle id="S_N_70" type="standard_car" route="S_N" depart="0" departLane="random" departSpeed="10" />
<vehicle id="W_E_71" type="standard_car" route="W_E" depart="0" departLane="random" departSpeed="10" />
<vehicle id="W_E_72" type="standard_car" route="W_E" depart="0" departLane="random" departSpeed="10" />
<vehicle id="S_N_73" type="standard_car" route="S_N" depart="0" departLane="random" departSpeed="10" />
<vehicle id="E_W_74" type="standard_car" route="E_W" depart="0" departLane="random" departSpeed="10" />
<vehicle id="W_E_75" type="standard_car" route="W_E" depart="0" departLane="random" departSpeed="10" />
<vehicle id="S_N_76" type="standard_car" route="S_N" depart="0" departLane="random" departSpeed="10" />
<vehicle id="E_W_77" type="standard_car" route="E_W" depart="0" departLane="random" departSpeed="10" />
<vehicle id="S_N_78" type="standard_car" route="S_N" depart="0" departLane="random" departSpeed="10" />
<vehicle id="S_N_79" type="standard_car" route="S_N" depart="0" departLane="random" departSpeed="10" />
<vehicle id="S_N_80" type="standard_car" route="S_N" depart="0" departLane="random" departSpeed="10" />
<vehicle id="N_S_81" type="standard_car" route="N_S" depart="0" departLane="random" departSpeed="10" />
<vehicle id="S_N_82" type="standard_car" route="S_N" depart="0" departLane="random" departSpeed="10" />
<vehicle id="E_W_83" type="standard_car" route="E_W" depart="0" departLane="random" departSpeed="10" />
<vehicle id="E_W_84" type="standard_car" route="E_W" depart="0" departLane="random" departSpeed="10" />
<vehicle id="S_N_85" type="standard_car" route="S_N" depart="0" departLane="random" departSpeed="10" />
<vehicle id="E_W_86" type="standard_car" route="E_W" depart="0" departLane="random" departSpeed="10" />
<vehicle id="S_N_87" type="standard_car" route="S_N" depart="0" departLane="random" departSpeed="10" />
<vehicle id="N_S_88" type="standard_car" route="N_S" depart="0" departLane="random" departSpeed="10" />
<vehicle id="N_S_89" type="standard_car" route="N_S" depart="0" departLane="random" departSpeed="10" />
<vehicle id="W_E_90" type="standard_car" route="W_E" depart="0" departLane="random" departSpeed="10" />
<vehicle id="S_N_91" type="standard_car" route="S_N" depart="0" departLane="random" departSpeed="10" />
<vehicle id="E_W_92" type="standard_car" route="E_W" depart="0" departLane="random" departSpeed="10" />
<vehicle id="N_S_93" type="standard_car" route="N_S" depart="0" departLane="random" departSpeed="10" />
<vehicle id="E_W_94" type="standard_car" route="E_W" depart="0" departLane="random" departSpeed="10" />
<vehicle id="E_W_95" type="standard_car" route="E_W" depart="0" departLane="random" departSpeed="10" />
<vehicle id="S_N_96" type="standard_car" route="S_N" depart="0" departLane="random" departSpeed="10" />
<vehicle id="N_S_97" type="standard_car" route="N_S" depart="0" departLane="random" departSpeed="10" />
<vehicle id="W_E_98" type="standard_car" route="W_E" depart="0" departLane="random" departSpeed="10" />
<vehicle id="N_S_99" type="standard_car" route="N_S" depart="0" departLane="random" departSpeed="10" />
<vehicle id="E_W_100" type="standard_car" route="E_W" depart="0" departLane="random" departSpeed="10" />
<vehicle id="N_S_101" type="standard_car" route="N_S" depart="0" departLane="random" departSpeed="10" />
<vehicle id="S_N_102" type="standard_car" route="S_N" depart="0" departLane="random" departSpeed="10" />
<vehicle id="E_W_103" type="standard_car" route="E_W" depart="0" departLane="random" departSpeed="10" />
<vehicle id="S_N_104" type="standard_car" route="S_N" depart="0" departLane="random" departSpeed="10" />
<vehicle id="N_S_105" type="standard_car" route="N_S" depart="0" departLane="random" departSpeed="10" />
<vehicle id="W_E_106" type="standard_car" route="W_E" depart="0" departLane="random" departSpeed="10" />
<vehicle id="S_N_107" type="standard_car" route="S_N" depart="0" departLane="random" departSpeed="10" />
<vehicle id="N_S_108" type="standard_car" route="N_S" depart="0" departLane="random" departSpeed="10" />
<vehicle id="S_N_109" type="standard_car" route="S_N" depart="0" departLane="random" departSpeed="10" />
<vehicle id="W_E_110" type="standard_car" route="W_E" depart="0" departLane="random" departSpeed="10" />
<vehicle id="W_E_111" type="standard_car" route="W_E" depart="0" departLane="random" departSpeed="10" />
<vehicle id="S_N_112" type="standard_car" route="S_N" depart="0" departLane="random" departSpeed="10" />
<vehicle id="N_S_113" type="standard_car" route="N_S" depart="0" departLane="random" departSpeed="10" />
<vehicle id="W_E_114" type="standard_car" route="W_E" depart="0" departLane="random" departSpeed="10" />
<vehicle id="S_N_115" type="standard_car" route="S_N" depart="0" departLane="random" departSpeed="10" />
<vehicle id="S_N_116" type="standard_car" route="S_N" depart="0" departLane="random" departSpeed="10" />
<vehicle id="S_N_117" type="standard_car" route="S_N" depart="0" departLane="random" departSpeed="10" />
<vehicle id="S_N_118" type="standard_car" route="S_N" depart="0" departLane="random" departSpeed="10" />
<vehicle id="W_E_119" type="standard_car" route="W_E" depart="0" departLane="random" departSpeed="10" />
<vehicle id="W_E_120" type="standard_car" route="W_E" depart="0" departLane="random" departSpeed="10" />
<vehicle id="W_E_121" type="standard_car" route="W_E" depart="0" departLane="random" departSpeed="10" />
<vehicle id="W_E_122" type="standard_car" route="W_E" depart="0" departLane="random" departSpeed="10" />
<vehicle id="E_W_123" type="standard_car" route="E_W" depart="0" departLane="random" departSpeed="10" />
<vehicle id="S_N_124" type="standard_car" route="S_N" depart="0" departLane="random" departSpeed="10" />
<vehicle id="N_S_125" type="standard_car" route="N_S" depart="0" departLane="random" departSpeed="10" />
<vehicle id="N_S_126" type="standard_car" route="N_S" depart="0" departLane="random" departSpeed="10" />
<vehicle id="S_N_127" type="standard_car" route="S_N" depart="0" departLane="random" departSpeed="10" />
<vehicle id="W_E_128" type="standard_car" route="W_E" depart="0" departLane="random" departSpeed="10" />
<vehicle id="E_W_129" type="standard_car" route="E_W" depart="0" departLane="random" departSpeed="10" />
<vehicle id="N_S_130" type="standard_car" route="N_S" depart="0" departLane="random" departSpeed="10" />
<vehicle id="S_N_131" type="standard_car" route="S_N" depart="0" departLane="random" departSpeed="10" />
<vehicle id="N_S_132" type="standard_car" route="N_S" depart="0" departLane="random" departSpeed="10" />
<vehicle id="W_E_133" type="standard_car" route="W_E" depart="0" departLane="random" departSpeed="10" />
<vehicle id="S_N_134" type="standard_car" route="S_N" depart="0" departLane="random" departSpeed="10" />
<vehicle id="E_W_135" type="standard_car" route="E_W" depart="0" departLane="random" departSpeed="10" />
<vehicle id="S_N_136" type="standard_car" route="S_N" depart="0" departLane="random" departSpeed="10" />
<vehicle id="E_W_137" type="standard_car" route="E_W" depart="0" departLane="random" departSpeed="10" />
<vehicle id="S_N_138" type="standard_car" route="S_N" depart="0" departLane="random" departSpeed="10" />
<vehicle id="S_N_139" type="standard_car" route="S_N" depart="0" departLane="random" departSpeed="10" />
<vehicle id="N_S_140" type="standard_car" route="N_S" depart="0" departLane="random" departSpeed="10" />
<vehicle id="W_E_141" type="standard_car" route="W_E" depart="0" departLane="random" departSpeed="10" />
<vehicle id="W_E_142" type="standard_car" route="W_E" depart="0" departLane="random" departSpeed="10" />
<vehicle id="W_E_143" type="standard_car" route="W_E" depart="0" departLane="random" departSpeed="10" />
<vehicle id="W_E_144" type="standard_car" route="W_E" depart="0" departLane="random" departSpeed="10" />
<vehicle id="W_E_145" type="standard_car" route="W_E" depart="0" departLane="random" departSpeed="10" />
<vehicle id="E_W_146" type="standard_car" route="E_W" depart="0" departLane="random" departSpeed="10" />
<vehicle id="S_N_147" type="standard_car" route="S_N" depart="0" departLane="random" departSpeed="10" />
<vehicle id="N_S_148" type="standard_car" route="N_S" depart="0" departLane="random" departSpeed="10" />
<vehicle id="W_E_149" type="standard_car" route="W_E" depart="0" departLane="random" departSpeed="10" />
<vehicle id="W_E_150" type="standard_car" route="W_E" depart="0" departLane="random" departSpeed="10" />
<vehicle id="S_N_151" type="standard_car" route="S_N" depart="0" departLane="random" departSpeed="10" />
<vehicle id="N_S_152" type="standard_car" route="N_S" depart="0" departLane="random" departSpeed="10" />
<vehicle id="E_W_153" type="standard_car" route="E_W" depart="0" departLane="random" departSpeed="10" />
<vehicle id="E_W_154" type="standard_car" route="E_W" depart="0" departLane="random" departSpeed="10" />
<vehicle id="S_N_155" type="standard_car" route="S_N" depart="0" departLane="random" departSpeed="10" />
<vehicle id="W_E_156" type="standard_car" route="W_E" depart="0" departLane="random" departSpeed="10" />
<vehicle id="N_S_157" type="standard_car" route="N_S" depart="0" departLane="random" departSpeed="10" />
<vehicle id="S_N_158" type="standard_car" route="S_N" depart="0" departLane="random" departSpeed="10" />
<vehicle id="S_N_159" type="standard_car" route="S_N" depart="0" departLane="random" departSpeed="10" />
<vehicle id="E_W_160" type="standard_car" route="E_W" depart="0" departLane="random" departSpeed="10" />
<vehicle id="N_S_161" type="standard_car" route="N_S" depart="0" departLane="random" departSpeed="10" />
<vehicle id="N_S_162" type="standard_car" route="N_S" depart="0" departLane="random" departSpeed="10" />
<vehicle id="S_N_163" type="standard_car" route="S_N" depart="0" departLane="random" departSpeed="10" />
<vehicle id="W_E_164" type="standard_car" route="W_E" depart="0" departLane="random" departSpeed="10" />
<vehicle id="W_E_165" type="standard_car" route="W_E" depart="0" departLane="random" departSpeed="10" />
<vehicle id="W_E_166" type="standard_car" route="W_E" depart="0" departLane="random" departSpeed="10" />
<vehicle id="N_S_167" type="standard_car" route="N_S" depart="0" departLane="random" departSpeed="10" />
<vehicle id="N_S_168" type="standard_car" route="N_S" depart="0" departLane="random" departSpeed="10" />
<vehicle id="N_S_169" type="standard_car" route="N_S" depart="0" departLane="random" departSpeed="10" />
<vehicle id="E_W_170" type="standard_car" route="E_W" depart="0" departLane="random" departSpeed="10" />
<vehicle id="S_N_171" type="standard_car" route="S_N" depart="0" departLane="random" departSpeed="10" />
<vehicle id="N_S_172" type="standard_car" route="N_S" depart="0" departLane="random" departSpeed="10" />
<vehicle id="E_W_173" type="standard_car" route="E_W" depart="0" departLane="random" departSpeed="10" />
<vehicle id="N_S_174" type="standard_car" route="N_S" depart="0" departLane="random" departSpeed="10" />
<vehicle id="S_N_175" type="standard_car" route="S_N" depart="0" departLane="random" departSpeed="10" />
<vehicle id="N_S_176" type="standard_car" route="N_S" depart="0" departLane="random" departSpeed="10" />
<vehicle id="E_W_177" type="standard_car" route="E_W" depart="0" departLane="random" departSpeed="10" />
<vehicle id="W_E_178" type="standard_car" route="W_E" depart="0" departLane="random" departSpeed="10" />
<vehicle id="E_W_179" type="standard_car" route="E_W" depart="0" departLane="random" departSpeed="10" />
<vehicle id="N_S_180" type="standard_car" route="N_S" depart="0" departLane="random" departSpeed="10" />
<vehicle id="E_W_181" type="standard_car" route="E_W" depart="0" departLane="random" departSpeed="10" />
<vehicle id="S_N_182" type="standard_car" route="S_N" depart="0" departLane="random" departSpeed="10" />
<vehicle id="W_E_183" type="standard_car" route="W_E" depart="0" departLane="random" departSpeed="10" />
<vehicle id="E_W_184" type="standard_car" route="E_W" depart="0" departLane="random" departSpeed="10" />
<vehicle id="S_N_185" type="standard_car" route="S_N" depart="0" departLane="random" departSpeed="10" />
<vehicle id="W_E_186" type="standard_car" route="W_E" depart="0" departLane="random" departSpeed="10" />
<vehicle id="N_S_187" type="standard_car" route="N_S" depart="0" departLane="random" departSpeed="10" />
<vehicle id="N_S_188" type="standard_car" route="N_S" depart="0" departLane="random" departSpeed="10" />
<vehicle id="S_N_189" type="standard_car" route="S_N" depart="0" departLane="random" departSpeed="10" />
<vehicle id="E_W_190" type="standard_car" route="E_W" depart="0" departLane="random" departSpeed="10" />
<vehicle id="W_E_191" type="standard_car" route="W_E" depart="0" departLane="random" departSpeed="10" />
<vehicle id="S_N_192" type="standard_car" route="S_N" depart="0" departLane="random" departSpeed="10" />
<vehicle id="S_N_193" type="standard_car" route="S_N" depart="0" departLane="random" departSpeed="10" />
<vehicle id="S_N_194" type="standard_car" route="S_N" depart="0" departLane="random" departSpeed="10" />
<vehicle id="S_N_195" type="standard_car" route="S_N" depart="0" departLane="random" departSpeed="10" />
<vehicle id="W_E_196" type="standard_car" route="W_E" depart="0" departLane="random" departSpeed="10" />
<vehicle id="E_W_197" type="standard_car" route="E_W" depart="0" departLane="random" departSpeed="10" />
<vehicle id="N_S_198" type="standard_car" route="N_S" depart="0" departLane="random" departSpeed="10" />
<vehicle id="S_N_199" type="standard_car" route="S_N" depart="0" departLane="random" departSpeed="10" />
<vehicle id="S_N_200" type="standard_car" route="S_N" depart="0" departLane="random" departSpeed="10" />
<vehicle id="N_S_201" type="standard_car" route="N_S" depart="0" departLane="random" departSpeed="10" />
<vehicle id="S_N_202" type="standard_car" route="S_N" depart="0" departLane="random" departSpeed="10" />
<vehicle id="N_S_203" type="standard_car" route="N_S" depart="0" departLane="random" departSpeed="10" />
<vehicle id="E_W_204" type="standard_car" route="E_W" depart="0" departLane="random" departSpeed="10" />
<vehicle id="N_S_205" type="standard_car" route="N_S" depart="0" departLane="random" departSpeed="10" />
<vehicle id="N_S_206" type="standard_car" route="N_S" depart="0" departLane="random" departSpeed="10" />
<vehicle id="N_S_207" type="standard_car" route="N_S" depart="0" departLane="random" departSpeed="10" />
<vehicle id="S_N_208" type="standard_car" route="S_N" depart="0" departLane="random" departSpeed="10" />
<vehicle id="S_N_209" type="standard_car" route="S_N" depart="0" departLane="random" departSpeed="10" />
<vehicle id="E_W_210" type="standard_car" route="E_W" depart="0" departLane="random" departSpeed="10" />
<vehicle id="S_N_211" type="standard_car" route="S_N" depart="0" departLane="random" departSpeed="10" />
<vehicle id="W_E_212" type="standard_car" route="W_E" depart="0" departLane="random" departSpeed="10" />
<vehicle id="W_E_213" type="standard_car" route="W_E" depart="0" departLane="random" departSpeed="10" />
<vehicle id="W_E_214" type="standard_car" route="W_E" depart="0" departLane="random" departSpeed="10" />
<vehicle id="N_S_215" type="standard_car" route="N_S" depart="0" departLane="random" departSpeed="10" />
<vehicle id="W_E_216" type="standard_car" route="W_E" depart="0" departLane="random" departSpeed="10" />
<vehicle id="S_N_217" type="standard_car" route="S_N" depart="0" departLane="random" departSpeed="10" />
<vehicle id="S_N_218" type="standard_car" route="S_N" depart="0" departLane="random" departSpeed="10" />
<vehicle id="W_E_219" type="standard_car" route="W_E" depart="0" departLane="random" departSpeed="10" />
<vehicle id="W_E_220" type="standard_car" route="W_E" depart="0" departLane="random" departSpeed="10" />
<vehicle id="E_W_221" type="standard_car" route="E_W" depart="0" departLane="random" departSpeed="10" />
<vehicle id="W_E_222" type="standard_car" route="W_E" depart="0" departLane="random" departSpeed="10" />
<vehicle id="S_N_223" type="standard_car" route="S_N" depart="0" departLane="random" departSpeed="10" />
<vehicle id="E_W_224" type="standard_car" route="E_W" depart="0" departLane="random" departSpeed="10" />
<vehicle id="S_N_225" type="standard_car" route="S_N" depart="0" departLane="random" departSpeed="10" />
<vehicle id="N_S_226" type="standard_car" route="N_S" depart="0" departLane="random" departSpeed="10" />
<vehicle id="S_N_227" type="standard_car" route="S_N" depart="0" departLane="random" departSpeed="10" />
<vehicle id="S_N_228" type="standard_car" route="S_N" depart="0" departLane="random" departSpeed="10" />
<vehicle id="S_N_229" type="standard_car" route="S_N" depart="0" departLane="random" departSpeed="10" />
<vehicle id="N_S_230" type="standard_car" route="N_S" depart="0" departLane="random" departSpeed="10" />
<vehicle id="N_S_231" type="standard_car" route="N_S" depart="0" departLane="random" departSpeed="10" />
<vehicle id="S_N_232" type="standard_car" route="S_N" depart="0" departLane="random" departSpeed="10" />
<vehicle id="E_W_233" type="standard_car" route="E_W" depart="0" departLane="random" departSpeed="10" />
<vehicle id="N_S_234" type="standard_car" route="N_S" depart="0" departLane="random" departSpeed="10" />
<vehicle id="N_S_235" type="standard_car" route="N_S" depart="0" departLane="random" departSpeed="10" />
<vehicle id="W_E_236" type="standard_car" route="W_E" depart="0" departLane="random" departSpeed="10" />
<vehicle id="N_S_237" type="standard_car" route="N_S" depart="0" departLane="random" departSpeed="10" />
<vehicle id="E_W_238" type="standard_car" route="E_W" depart="0" departLane="random" departSpeed="10" />
<vehicle id="S_N_239" type="standard_car" route="S_N" depart="0" departLane="random" departSpeed="10" />
<vehicle id="E_W_240" type="standard_car" route="E_W" depart="0" departLane="random" departSpeed="10" />
<vehicle id="S_N_241" type="standard_car" route="S_N" depart="0" departLane="random" departSpeed="10" />
<vehicle id="N_S_242" type="standard_car" route="N_S" depart="0" departLane="random" departSpeed="10" />
<vehicle id="W_E_243" type="standard_car" route="W_E" depart="0" departLane="random" departSpeed="10" />
<vehicle id="S_N_244" type="standard_car" route="S_N" depart="0" departLane="random" departSpeed="10" />
<vehicle id="N_S_245" type="standard_car" route="N_S" depart="0" departLane="random" departSpeed="10" />
<vehicle id="W_E_246" type="standard_car" route="W_E" depart="0" departLane="random" departSpeed="10" />
<vehicle id="E_W_247" type="standard_car" route="E_W" depart="0" departLane="random" departSpeed="10" />
<vehicle id="N_S_248" type="standard_car" route="N_S" depart="0" departLane="random" departSpeed="10" />
<vehicle id="S_N_249" type="standard_car" route="S_N" depart="0" departLane="random" departSpeed="10" />
<vehicle id="W_E_250" type="standard_car" route="W_E" depart="0" departLane="random" departSpeed="10" />
<vehicle id="S_N_251" type="standard_car" route="S_N" depart="0" departLane="random" departSpeed="10" />
<vehicle id="E_W_252" type="standard_car" route="E_W" depart="0" departLane="random" departSpeed="10" />
<vehicle id="S_N_253" type="standard_car" route="S_N" depart="0" departLane="random" departSpeed="10" />
<vehicle id="N_S_254" type="standard_car" route="N_S" depart="0" departLane="random" departSpeed="10" />
<vehicle id="S_N_255" type="standard_car" route="S_N" depart="0" departLane="random" departSpeed="10" />
<vehicle id="N_S_256" type="standard_car" route="N_S" depart="0" departLane="random" departSpeed="10" />
<vehicle id="N_S_257" type="standard_car" route="N_S" depart="0" departLane="random" departSpeed="10" />
<vehicle id="E_W_258" type="standard_car" route="E_W" depart="0" departLane="random" departSpeed="10" />
<vehicle id="N_S_259" type="standard_car" route="N_S" depart="0" departLane="random" departSpeed="10" />
<vehicle id="S_N_260" type="standard_car" route="S_N" depart="0" departLane="random" departSpeed="10" />
<vehicle id="S_N_261" type="standard_car" route="S_N" depart="0" departLane="random" departSpeed="10" />
<vehicle id="S_N_262" type="standard_car" route="S_N" depart="0" departLane="random" departSpeed="10" />
<vehicle id="N_S_263" type="standard_car" route="N_S" depart="0" departLane="random" departSpeed="10" />
<vehicle id="S_N_264" type="standard_car" route="S_N" depart="0" departLane="random" departSpeed="10" />
<vehicle id="E_W_265" type="standard_car" route="E_W" depart="0" departLane="random" departSpeed="10" />
<vehicle id="N_S_266" type="standard_car" route="N_S" depart="0" departLane="random" departSpeed="10" />
<vehicle id="N_S_267" type="standard_car" route="N_S" depart="0" departLane="random" departSpeed="10" />
<vehicle id="E_W_268" type="standard_car" route="E_W" depart="0" departLane="random" departSpeed="10" />
<vehicle id="E_W_269" type="standard_car" route="E_W" depart="0" departLane="random" departSpeed="10" />
<vehicle id="E_W_270" type="standard_car" route="E_W" depart="0" departLane="random" departSpeed="10" />
<vehicle id="E_W_271" type="standard_car" route="E_W" depart="0" departLane="random" departSpeed="10" />
<vehicle id="N_S_272" type="standard_car" route="N_S" depart="0" departLane="random" departSpeed="10" />
<vehicle id="E_W_273" type="standard_car" route="E_W" depart="0" departLane="random" departSpeed="10" />
<vehicle id="S_N_274" type="standard_car" route="S_N" depart="0" departLane="random" departSpeed="10" />
<vehicle id="N_S_275" type="standard_car" route="N_S" depart="0" departLane="random" departSpeed="10" />
<vehicle id="W_E_276" type="standard_car" route="W_E" depart="0" departLane="random" departSpeed="10" />
<vehicle id="E_W_277" type="standard_car" route="E_W" depart="0" departLane="random" departSpeed="10" />
<vehicle id="E_W_278" type="standard_car" route="E_W" depart="0" departLane="random" departSpeed="10" />
<vehicle id="S_N_279" type="standard_car" route="S_N" depart="0" departLane="random" departSpeed="10" />
<vehicle id="S_N_280" type="standard_car" route="S_N" depart="0" departLane="random" departSpeed="10" />
<vehicle id="S_N_281" type="standard_car" route="S_N" depart="0" departLane="random" departSpeed="10" />