<routes>
            <vType accel="1.0" decel="4.5" id="standard_car" length="5.0" minGap="2.5" maxSpeed="25" sigma="0.5" />
            <route id="W_E" edges= "west_edge_one east_edge_two"/>
            <route id="N_S" edges= "north_edge_one south_edge_two"/>
            <route id="E_W" edges= "east_edge_one  west_edge_two"/>
            <route id="S_N" edges= "south_edge_one north_edge_two"/> 

            
<vehicle id="S_N_0" type="standard_car" route="S_N" depart="4.0" departLane="random" departSpeed="10" />
<vehicle id="W_E_1" type="standard_car" route="W_E" depart="4.0" departLane="random" departSpeed="10" />
<vehicle id="W_E_2" type="standard_car" route="W_E" depart="5.0" departLane="random" departSpeed="10" />
<vehicle id="W_E_3" type="standard_car" route="W_E" depart="5.0" departLane="random" departSpeed="10" />
<vehicle id="W_E_4" type="standard_car" route="W_E" depart="7.0" departLane="random" departSpeed="10" />
<vehicle id="N_S_5" type="standard_car" route="N_S" depart="9.0" departLane="random" departSpeed="10" />
<vehicle id="E_W_6" type="standard_car" route="E_W" depart="9.0" departLane="random" departSpeed="10" />
<vehicle id="S_N_7" type="standard_car" route="S_N" depart="9.0" departLane="random" departSpeed="10" />
<vehicle id="S_N_8" type="standard_car" route="S_N" depart="13.0" departLane="random" departSpeed="10" />
<vehicle id="E_W_9" type="standard_car" route="E_W" depart="13.0" departLane="random" departSpeed="10" />
<vehicle id="E_W_10" type="standard_car" route="E_W" depart="15.0" departLane="random" departSpeed="10" />
<vehicle id="S_N_11" type="standard_car" route="S_N" depart="20.0" departLane="random" departSpeed="10" />
<vehicle id="N_S_12" type="standard_car" route="N_S" depart="23.0" departLane="random" departSpeed="10" />
<vehicle id="E_W_13" type="standard_car" route="E_W" depart="25.0" departLane="random" departSpeed="10" />
<vehicle id="W_E_14" type="standard_car" route="W_E" depart="26.0" departLane="random" departSpeed="10" />
<vehicle id="W_E_15" type="standard_car" route="W_E" depart="33.0" departLane="random" departSpeed="10" />
<vehicle id="E_W_16" type="standard_car" route="E_W" depart="34.0" departLane="random" departSpeed="10" />
<vehicle id="N_S_17" type="standard_car" route="N_S" depart="36.0" departLane="random" departSpeed="10" />
<vehicle id="E_W_18" type="standard_car" route="E_W" depart="36.0" departLane="random" departSpeed="10" />
<vehicle id="E_W_19" type="standard_car" route="E_W" depart="38.0" departLane="random" departSpeed="10" />
<vehicle id="W_E_20" type="standard_car" route="W_E" depart="42.0" departLane="random" departSpeed="10" />
<vehicle id="S_N_21" type="standard_car" route="S_N" depart="43.0" departLane="random" departSpeed="10" />
<vehicle id="W_E_22" type="standard_car" route="W_E" depart="44.0" departLane="random" departSpeed="10" />
<vehicle id="E_W_23" type="standard_car" route="E_W" depart="44.0" departLane="random" departSpeed="10" />
<vehicle id="S_N_24" type="standard_car" route="S_N" depart="46.0" departLane="random" departSpeed="10" />
<vehicle id="E_W_25" type="standard_car" route="E_W" depart="49.0" departLane="random" departSpeed="10" />
<vehicle id="S_N_26" type="standard_car" route="S_N" depart="49.0" departLane="random" departSpeed="10" />
<vehicle id="E_W_27" type="standard_car" route="E_W" depart="49.0" departLane="random" departSpeed="10" />
<vehicle id="N_S_28" type="standard_car" route="N_S" depart="50.0" departLane="random" departSpeed="10" />
<vehicle id="E_W_29" type="standard_car" route="E_W" depart="52.0" departLane="random" departSpeed="10" />
<vehicle id="S_N_30" type="standard_car" route="S_N" depart="54.0" departLane="random" departSpeed="10" />
<vehicle id="E_W_31" type="standard_car" route="E_W" depart="56.0" departLane="random" departSpeed="10" />
<vehicle id="S_N_32" type="standard_car" route="S_N" depart="61.0" departLane="random" departSpeed="10" />
<vehicle id="E_W_33" type="standard_car" route="E_W" depart="61.0" departLane="random" departSpeed="10" />
<vehicle id="S_N_34" type="standard_car" route="S_N" depart="61.0" departLane="random" departSpeed="10" />
<vehicle id="N_S_35" type="standard_car" route="N_S" depart="64.0" departLane="random" departSpeed="10" />
<vehicle id="E_W_36" type="standard_car" route="E_W" depart="65.0" departLane="random" departSpeed="10" />
<vehicle id="W_E_37" type="standard_car" route="W_E" depart="66.0" departLane="random" departSpeed="10" />
<vehicle id="N_S_38" type="standard_car" route="N_S" depart="68.0" departLane="random" departSpeed="10" />
<vehicle id="W_E_39" type="standard_car" route="W_E" depart="71.0" departLane="random" departSpeed="10" />
<vehicle id="S_N_40" type="standard_car" route="S_N" depart="71.0" departLane="random" departSpeed="10" />
<vehicle id="S_N_41" type="standard_car" route="S_N" depart="71.0" departLane="random" departSpeed="10" />
<vehicle id="E_W_42" type="standard_car" route="E_W" depart="72.0" departLane="random" departSpeed="10" />
<vehicle id="S_N_43" type="standard_car" route="S_N" depart="72.0" departLane="random" departSpeed="10" />
<vehicle id="W_E_44" type="standard_car" route="W_E" depart="76.0" departLane="random" departSpeed="10" />
<vehicle id="W_E_45" type="standard_car" route="W_E" depart="76.0" departLane="random" departSpeed="10" />
<vehicle id="W_E_46" type="standard_car" route="W_E" depart="78.0" departLane="random" departSpeed="10" />
<vehicle id="S_N_47" type="standard_car" route="S_N" depart="78.0" departLane="random" departSpeed="10" />
<vehicle id="E_W_48" type="standard_car" route="E_W" depart="78.0" departLane="random" departSpeed="10" />
<vehicle id="E_W_49" type="standard_car" route="E_W" depart="80.0" departLane="random" departSpeed="10" />
<vehicle id="S_N_50" type="standard_car" route="S_N" depart="81.0" departLane="random" departSpeed="10" />
<vehicle id="E_W_51" type="standard_car" route="E_W" depart="81.0" departLane="random" departSpeed="10" />
<vehicle id="E_W_52" type="standard_car" route="E_W" depart="82.0" departLane="random" departSpeed="10" />
<vehicle id="S_N_53" type="standard_car" route="S_N" depart="85.0" departLane="random" departSpeed="10" />
<vehicle id="N_S_54" type="standard_car" route="N_S" depart="85.0" departLane="random" departSpeed="10" />
<vehicle id="S_N_55" type="standard_car" route="S_N" depart="86.0" departLane="random" departSpeed="10" />
<vehicle id="W_E_56" type="standard_car" route="W_E" depart="86.0" departLane="random" departSpeed="10" />
<vehicle id="E_W_57" type="standard_car" route="E_W" depart="87.0" departLane="random" departSpeed="10" />
<vehicle id="W_E_58" type="standard_car" route="W_E" depart="89.0" departLane="random" departSpeed="10" />
<vehicle id="E_W_59" type="standard_car" route="E_W" depart="89.0" departLane="random" departSpeed="10" />
<vehicle id="W_E_60" type="standard_car" route="W_E" depart="89.0" departLane="random" departSpeed="10" />
<vehicle id="S_N_61" type="standard_car" route="S_N" depart="91.0" departLane="random" departSpeed="10" />
<vehicle id="S_N_62" type="standard_car" route="S_N" depart="93.0" departLane="random" departSpeed="10" />
<vehicle id="N_S_63" type="standard_car" route="N_S" depart="94.0" departLane="random" departSpeed="10" />
<vehicle id="N_S_64" type="standard_car" route="N_S" depart="97.0" departLane="random" departSpeed="10" />
<vehicle id="N_S_65" type="standard_car" route="N_S" depart="97.0" departLane="random" departSpeed="10" />
<vehicle id="S_N_66" type="standard_car" route="S_N" depart="100.0" departLane="random" departSpeed="10" />
<vehicle id="N_S_67" type="standard_car" route="N_S" depart="101.0" departLane="random" departSpeed="10" />
<vehicle id="N_S_68" type="standard_car" route="N_S" depart="103.0" departLane="random" departSpeed="10" />
<vehicle id="W_E_69" type="standard_car" route="W_E" depart="106.0" departLane="random" departSpeed="10" />
<vehicle id="W_E_70" type="standard_car" route="W_E" depart="107.0" departLane="random" departSpeed="10" />
<vehicle id="W_E_71" type="standard_car" route="W_E" depart="107.0" departLane="random" departSpeed="10" />
<vehicle id="E_W_72" type="standard_car" route="E_W" depart="108.0" departLane="random" departSpeed="10" />
<vehicle id="E_W_73" type="standard_car" route="E_W" depart="110.0" departLane="random" departSpeed="10" />
<vehicle id="N_S_74" type="standard_car" route="N_S" depart="111.0" departLane="random" departSpeed="10" />
<vehicle id="E_W_75" type="standard_car" route="E_W" depart="112.0" departLane="random" departSpeed="10" />
<vehicle id="N_S_76" type="standard_car" route="N_S" depart="114.0" departLane="random" departSpeed="10" />
<vehicle id="S_N_77" type="standard_car" route="S_N" depart="114.0" departLane="random" departSpeed="10" />
<vehicle id="S_N_78" type="standard_car" route="S_N" depart="117.0" departLane="random" departSpeed="10" />
<vehicle id="N_S_79" type="standard_car" route="N_S" depart="120.0" departLane="random" departSpeed="10" />
<vehicle id="E_W_80" type="standard_car" route="E_W" depart="120.0" departLane="random" departSpeed="10" />
<vehicle id="S_N_81" type="standard_car" route="S_N" depart="121.0" departLane="random" departSpeed="10" />
<vehicle id="E_W_82" type="standard_car" route="E_W" depart="124.0" departLane="random" departSpeed="10" />
<vehicle id="W_E_83" type="standard_car" route="W_E" depart="125.0" departLane="random" departSpeed="10" />
<vehicle id="E_W_84" type="standard_car" route="E_W" depart="128.0" departLane="random" departSpeed="10" />
<vehicle id="W_E_85" type="standard_car" route="W_E" depart="134.0" departLane="random" departSpeed="10" />
<vehicle id="N_S_86" type="standard_car" route="N_S" depart="136.0" departLane="random" departSpeed="10" />
<vehicle id="E_W_87" type="standard_car" route="E_W" depart="138.0" departLane="random" departSpeed="10" />
<vehicle id="E_W_88" type="standard_car" route="E_W" depart="138.0" departLane="random" departSpeed="10" />
<vehicle id="E_W_89" type="standard_car" route="E_W" depart="139.0" departLane="random" departSpeed="10" />
<vehicle id="W_E_90" type="standard_car" route="W_E" depart="139.0" departLane="random" departSpeed="10" />
<vehicle id="S_N_91" type="standard_car" route="S_N" depart="141.0" departLane="random" departSpeed="10" />
<vehicle id="S_N_92" type="standard_car" route="S_N" depart="145.0" departLane="random" departSpeed="10" />
<vehicle id="W_E_93" type="standard_car" route="W_E" depart="147.0" departLane="random" departSpeed="10" />
<vehicle id="E_W_94" type="standard_car" route="E_W" depart="149.0" departLane="random" departSpeed="10" />
<vehicle id="N_S_95" type="standard_car" route="N_S" depart="149.0" departLane="random" departSpeed="10" />
<vehicle id="N_S_96" type="standard_car" route="N_S" depart="150.0" departLane="random" departSpeed="10" />
<vehicle id="N_S_97" type="standard_car" route="N_S" depart="155.0" departLane="random" departSpeed="10" />
<vehicle id="S_N_98" type="standard_car" route="S_N" depart="158.0" departLane="random" departSpeed="10" />
<vehicle id="N_S_99" type="standard_car" route="N_S" depart="165.0" departLane="random" departSpeed="10" />
<vehicle id="E_W_100" type="standard_car" route="E_W" depart="165.0" departLane="random" departSpeed="10" />
<vehicle id="W_E_101" type="standard_car" route="W_E" depart="167.0" departLane="random" departSpeed="10" />
<vehicle id="W_E_102" type="standard_car" route="W_E" depart="168.0" departLane="random" departSpeed="10" />
<vehicle id="S_N_103" type="standard_car" route="S_N" depart="169.0" departLane="random" departSpeed="10" />
<vehicle id="E_W_104" type="standard_car" route="E_W" depart="169.0" departLane="random" departSpeed="10" />
<vehicle id="N_S_105" type="standard_car" route="N_S" depart="170.0" departLane="random" departSpeed="10" />
<vehicle id="S_N_106" type="standard_car" route="S_N" depart="173.0" departLane="random" departSpeed="10" />
<vehicle id="E_W_107" type="standard_car" route="E_W" depart="174.0" departLane="random" departSpeed="10" />
<vehicle id="N_S_108" type="standard_car" route="N_S" depart="174.0" departLane="random" departSpeed="10" />
<vehicle id="N_S_109" type="standard_car" route="N_S" depart="177.0" departLane="random" departSpeed="10" />
<vehicle id="N_S_110" type="standard_car" route="N_S" depart="178.0" departLane="random" departSpeed="10" />
<vehicle id="E_W_111" type="standard_car" route="E_W" depart="178.0" departLane="random" departSpeed="10" />
<vehicle id="E_W_112" type="standard_car" route="E_W" depart="181.0" departLane="random" departSpeed="10" />
<vehicle id="N_S_113" type="standard_car" route="N_S" depart="181.0" departLane="random" departSpeed="10" />
<vehicle id="E_W_114" type="standard_car" route="E_W" depart="183.0" departLane="random" departSpeed="10" />
<vehicle id="S_N_115" type="standard_car" route="S_N" depart="186.0" departLane="random" departSpeed="10" />
<vehicle id="N_S_116" type="standard_car" route="N_S" depart="187.0" departLane="random" departSpeed="10" />
<vehicle id="W_E_117" type="standard_car" route="W_E" depart="189.0" departLane="random" departSpeed="10" />
<vehicle id="E_W_118" type="standard_car" route="E_W" depart="189.0" departLane="random" departSpeed="10" />
<vehicle id="S_N_119" type="standard_car" route="S_N" depart="190.0" departLane="random" departSpeed="10" />
<vehicle id="W_E_120" type="standard_car" route="W_E" depart="192.0" departLane="random" departSpeed="10" />
<vehicle id="S_N_121" type="standard_car" route="S_N" depart="194.0" departLane="random" departSpeed="10" />
<vehicle id="E_W_122" type="standard_car" route="E_W" depart="196.0" departLane="random" departSpeed="10" />
<vehicle id="E_W_123" type="standard_car" route="E_W" depart="197.0" departLane="random" departSpeed="10" />
<vehicle id="N_S_124" type="standard_car" route="N_S" depart="202.0" departLane="random" departSpeed="10" />
<vehicle id="N_S_125" type="standard_car" route="N_S" depart="203.0" departLane="random" departSpeed="10" />
<vehicle id="N_S_126" type="standard_car" route="N_S" depart="203.0" departLane="random" departSpeed="10" />
<vehicle id="S_N_127" type="standard_car" route="S_N" depart="204.0" departLane="random" departSpeed="10" />
<vehicle id="S_N_128" type="standard_car" route="S_N" depart="204.0" departLane="random" departSpeed="10" />
<vehicle id="E_W_129" type="standard_car" route="E_W" depart="205.0" departLane="random" departSpeed="10" />
<vehicle id="E_W_130" type="standard_car" route="E_W" depart="213.0" departLane="random" departSpeed="10" />
<vehicle id="N_S_131" type="standard_car" route="N_S" depart="216.0" departLane="random" departSpeed="10" />
<vehicle id="S_N_132" type="standard_car" route="S_N" depart="217.0" departLane="random" departSpeed="10" />
<vehicle id="W_E_133" type="standard_car" route="W_E" depart="219.0" departLane="random" departSpeed="10" />
<vehicle id="W_E_134" type="standard_car" route="W_E" depart="220.0" departLane="random" departSpeed="10" />
<vehicle id="S_N_135" type="standard_car" route="S_N" depart="222.0" departLane="random" departSpeed="10" />
<vehicle id="E_W_136" type="standard_car" route="E_W" depart="222.0" departLane="random" departSpeed="10" />
<vehicle id="S_N_137" type="standard_car" route="S_N" depart="225.0" departLane="random" departSpeed="10" />
<vehicle id="S_N_138" type="standard_car" route="S_N" depart="227.0" departLane="random" departSpeed="10" />
<vehicle id="W_E_139" type="standard_car" route="W_E" depart="227.0" departLane="random" departSpeed="10" />
<vehicle id="N_S_140" type="standard_car" route="N_S" depart="233.0" departLane="random" departSpeed="10" />
<vehicle id="W_E_141" type="standard_car" route="W_E" depart="236.0" departLane="random" departSpeed="10" />
<vehicle id="S_N_142" type="standard_car" route="S_N" depart="238.0" departLane="random" departSpeed="10" />
<vehicle id="N_S_143" type="standard_car" route="N_S" depart="239.0" departLane="random" departSpeed="10" />
<vehicle id="S_N_144" type="standard_car" route="S_N" depart="242.0" departLane="random" departSpeed="10" />
<vehicle id="E_W_145" type="standard_car" route="E_W" depart="242.0" departLane="random" departSpeed="10" />
<vehicle id="S_N_146" type="standard_car" route="S_N" depart="245.0" departLane="random" departSpeed="10" />
<vehicle id="S_N_147" type="standard_car" route="S_N" depart="251.0" departLane="random" departSpeed="10" />
<vehicle id="E_W_148" type="standard_car" route="E_W" depart="253.0" departLane="random" departSpeed="10" />
<vehicle id="E_W_149" type="standard_car" route="E_W" depart="258.0" departLane="random" departSpeed="10" />
<vehicle id="E_W_150" type="standard_car" route="E_W" depart="259.0" departLane="random" departSpeed="10" />
<vehicle id="E_W_151" type="standard_car" route="E_W" depart="261.0" departLane="random" departSpeed="10" />
<vehicle id="S_N_152" type="standard_car" route="S_N" depart="261.0" departLane="random" departSpeed="10" />
<vehicle id="N_S_153" type="standard_car" route="N_S" depart="265.0" departLane="random" departSpeed="10" />
<vehicle id="N_S_154" type="standard_car" route="N_S" depart="265.0" departLane="random" departSpeed="10" />
<vehicle id="N_S_155" type="standard_car" route="N_S" depart="276.0" departLane="random" departSpeed="10" />
<vehicle id="S_N_156" type="standard_car" route="S_N" depart="280.0" departLane="random" departSpeed="10" />
<vehicle id="N_S_157" type="standard_car" route="N_S" depart="281.0" departLane="random" departSpeed="10" />
<vehicle id="E_W_158" type="standard_car" route="E_W" depart="282.0" departLane="random" departSpeed="10" />
<vehicle id="E_W_159" type="standard_car" route="E_W" depart="283.0" departLane="random" departSpeed="10" />
<vehicle id="S_N_160" type="standard_car" route="S_N" depart="284.0" departLane="random" departSpeed="10" />
<vehicle id="N_S_161" type="standard_car" route="N_S" depart="290.0" departLane="random" departSpeed="10" />
<vehicle id="S_N_162" type="standard_car" route="S_N" depart="294.0" departLane="random" departSpeed="10" />
<vehicle id="S_N_163" type="standard_car" route="S_N" depart="294.0" departLane="random" departSpeed="10" />
<vehicle id="W_E_164" type="standard_car" route="W_E" depart="300.0" departLane="random" departSpeed="10" />
<vehicle id="N_S_165" type="standard_car" route="N_S" depart="301.0" departLane="random" departSpeed="10" />
<vehicle id="N_S_166" type="standard_car" route="N_S" depart="303.0" departLane="random" departSpeed="10" />
<vehicle id="S_N_167" type="standard_car" route="S_N" depart="308.0" departLane="random" departSpeed="10" />
<vehicle id="E_W_168" type="standard_car" route="E_W" depart="312.0" departLane="random" departSpeed="10" />
<vehicle id="S_N_169" type="standard_car" route="S_N" depart="312.0" departLane="random" departSpeed="10" />
<vehicle id="W_E_170" type="standard_car" route="W_E" depart="314.0" departLane="random" departSpeed="10" />
<vehicle id="W_E_171" type="standard_car" route="W_E" depart="316.0" departLane="random" departSpeed="10" />
<vehicle id="W_E_172" type="standard_car" route="W_E" depart="322.0" departLane="random" departSpeed="10" />
<vehicle id="N_S_173" type="standard_car" route="N_S" depart="329.0" departLane="random" departSpeed="10" />
<vehicle id="E_W_174" type="standard_car" route="E_W" depart="336.0" departLane="random" departSpeed="10" />
<vehicle id="S_N_175" type="standard_car" route="S_N" depart="336.0" departLane="random" departSpeed="10" />
<vehicle id="W_E_176" type="standard_car" route="W_E" depart="338.0" departLane="random" departSpeed="10" />
<vehicle id="E_W_177" type="standard_car" route="E_W" depart="338.0" departLane="random" departSpeed="10" />
<vehicle id="E_W_178" type="standard_car" route="E_W" depart="340.0" departLane="random" departSpeed="10" />
<vehicle id="E_W_179" type="standard_car" route="E_W" depart="341.0" departLane="random" departSpeed="10" />
<vehicle id="E_W_180" type="standard_car" route="E_W" depart="344.0" departLane="random" departSpeed="10" />
<vehicle id="S_N_181" type="standard_car" route="S_N" depart="350.0" departLane="random" departSpeed="10" />
<vehicle id="W_E_182" type="standard_car" route="W_E" depart="351.0" departLane="random" departSpeed="10" />
<vehicle id="E_W_183" type="standard_car" route="E_W" depart="351.0" departLane="random" departSpeed="10" />
<vehicle id="S_N_184" type="standard_car" route="S_N" depart="352.0" departLane="random" departSpeed="10" />
<vehicle id="S_N_185" type="standard_car" route="S_N" depart="354.0" departLane="random" departSpeed="10" />
<vehicle id="N_S_186" type="standard_car" route="N_S" depart="354.0" departLane="random" departSpeed="10" />
<vehicle id="E_W_187" type="standard_car" route="E_W" depart="355.0" departLane="random" departSpeed="10" />
<vehicle id="N_S_188" type="standard_car" route="N_S" depart="356.0" departLane="random" departSpeed="10" />
<vehicle id="W_E_189" type="standard_car" route="W_E" depart="356.0" departLane="random" departSpeed="10" />
<vehicle id="N_S_190" type="standard_car" route="N_S" depart="357.0" departLane="random" departSpeed="10" />
<vehicle id="N_S_191" type="standard_car" route="N_S" depart="357.0" departLane="random" departSpeed="10" />
<vehicle id="N_S_192" type="standard_car" route="N_S" depart="358.0" departLane="random" departSpeed="10" />
<vehicle id="W_E_193" type="standard_car" route="W_E" depart="361.0" departLane="random" departSpeed="10" />
<vehicle id="E_W_194" type="standard_car" route="E_W" depart="363.0" departLane="random" departSpeed="10" />
<vehicle id="N_S_195" type="standard_car" route="N_S" depart="363.0" departLane="random" departSpeed="10" />
<vehicle id="W_E_196" type="standard_car" route="W_E" depart="365.0" departLane="random" departSpeed="10" />
<vehicle id="S_N_197" type="standard_car" route="S_N" depart="373.0" departLane="random" departSpeed="10" />
<vehicle id="W_E_198" type="standard_car" route="W_E" depart="374.0" departLane="random" departSpeed="10" />
<vehicle id="E_W_199" type="standard_car" route="E_W" depart="375.0" departLane="random" departSpeed="10" />
<vehicle id="S_N_200" type="standard_car" route="S_N" depart="378.0" departLane="random" departSpeed="10" />
<vehicle id="E_W_201" type="standard_car" route="E_W" depart="378.0" departLane="random" departSpeed="10" />
<vehicle id="S_N_202" type="standard_car" route="S_N" depart="379.0" departLane="random" departSpeed="10" />
<vehicle id="N_S_203" type="standard_car" route="N_S" depart="380.0" departLane="random" departSpeed="10" />
<vehicle id="W_E_204" type="standard_car" route="W_E" depart="385.0" departLane="random" departSpeed="10" />
<vehicle id="E_W_205" type="standard_car" route="E_W" depart="389.0" departLane="random" departSpeed="10" />
<vehicle id="N_S_206" type="standard_car" route="N_S" depart="398.0" departLane="random" departSpeed="10" />
<vehicle id="E_W_207" type="standard_car" route="E_W" depart="400.0" departLane="random" departSpeed="10" />
<vehicle id="S_N_208" type="standard_car" route="S_N" depart="405.0" departLane="random" departSpeed="10" />
<vehicle id="S_N_209" type="standard_car" route="S_N" depart="408.0" departLane="random" departSpeed="10" />
<vehicle id="S_N_210" type="standard_car" route="S_N" depart="409.0" departLane="random" departSpeed="10" />
<vehicle id="W_E_211" type="standard_car" route="W_E" depart="410.0" departLane="random" departSpeed="10" />
<vehicle id="E_W_212" type="standard_car" route="E_W" depart="410.0" departLane="random" departSpeed="10" />
<vehicle id="W_E_213" type="standard_car" route="W_E" depart="418.0" departLane="random" departSpeed="10" />
<vehicle id="N_S_214" type="standard_car" route="N_S" depart="421.0" departLane="random" departSpeed="10" />
<vehicle id="E_W_215" type="standard_car" route="E_W" depart="423.0" departLane="random" departSpeed="10" />
<vehicle id="N_S_216" type="standard_car" route="N_S" depart="426.0" departLane="random" departSpeed="10" />
<vehicle id="S_N_217" type="standard_car" route="S_N" depart="427.0" departLane="random" departSpeed="10" />
<vehicle id="E_W_218" type="standard_car" route="E_W" depart="436.0" departLane="random" departSpeed="10" />
<vehicle id="W_E_219" type="standard_car" route="W_E" depart="439.0" departLane="random" departSpeed="10" />
<vehicle id="N_S_220" type="standard_car" route="N_S" depart="442.0" departLane="random" departSpeed="10" />
<vehicle id="N_S_221" type="standard_car" route="N_S" depart="446.0" departLane="random" departSpeed="10" />
<vehicle id="S_N_222" type="standard_car" route="S_N" depart="450.0" departLane="random" departSpeed="10" />
<vehicle id="S_N_223" type="standard_car" route="S_N" depart="453.0" departLane="random" departSpeed="10" />
<vehicle id="S_N_224" type="standard_car" route="S_N" depart="457.0" departLane="random" departSpeed="10" />
<vehicle id="S_N_225" type="standard_car" route="S_N" depart="458.0" departLane="random" departSpeed="10" />
<vehicle id="E_W_226" type="standard_car" route="E_W" depart="459.0" departLane="random" departSpeed="10" />
<vehicle id="N_S_227" type="standard_car" route="N_S" depart="461.0" departLane="random" departSpeed="10" />
<vehicle id="S_N_228" type="standard_car" route="S_N" depart="468.0" departLane="random" departSpeed="10" />
<vehicle id="S_N_229" type="standard_car" route="S_N" depart="472.0" departLane="random" departSpeed="10" />
<vehicle id="E_W_230" type="standard_car" route="E_W" depart="475.0" departLane="random" departSpeed="10" />
<vehicle id="N_S_231" type="standard_car" route="N_S" depart="480.0" departLane="random" departSpeed="10" />
<vehicle id="E_W_232" type="standard_car" route="E_W" depart="481.0" departLane="random" departSpeed="10" />
<vehicle id="N_S_233" type="standard_car" route="N_S" depart="483.0" departLane="random" departSpeed="10" />
<vehicle id="W_E_234" type="standard_car" route="W_E" depart="487.0" departLane="random" departSpeed="10" />
<vehicle id="N_S_235" type="standard_car" route="N_S" depart="490.0" departLane="random" departSpeed="10" />
<vehicle id="S_N_236" type="standard_car" route="S_N" depart="497.0" departLane="random" departSpeed="10" />
<vehicle id="N_S_237" type="standard_car" route="N_S" depart="499.0" departLane="random" departSpeed="10" />
<vehicle id="N_S_238" type="standard_car" route="N_S" depart="503.0" departLane="random" departSpeed="10" />
<vehicle id="W_E_239" type="standard_car" route="W_E" depart="509.0" departLane="random" departSpeed="10" />
<vehicle id="N_S_240" type="standard_car" route="N_S" depart="510.0" departLane="random" departSpeed="10" />
<vehicle id="S_N_241" type="standard_car" route="S_N" depart="511.0" departLane="random" departSpeed="10" />
<vehicle id="S_N_242" type="standard_car" route="S_N" depart="513.0" departLane="random" departSpeed="10" />
<vehicle id="W_E_243" type="standard_car" route="W_E" depart="515.0" departLane="random" departSpeed="10" />
<vehicle id="N_S_244" type="standard_car" route="N_S" depart="526.0" departLane="random" departSpeed="10" />
<vehicle id="S_N_245" type="standard_car" route="S_N" depart="533.0" departLane="random" departSpeed="10" />
<vehicle id="N_S_246" type="standard_car" route="N_S" depart="539.0" departLane="random" departSpeed="10" />
<vehicle id="S_N_247" type="standard_car" route="S_N" depart="540.0" departLane="random" departSpeed="10" />
<vehicle id="E_W_248" type="standard_car" route="E_W" depart="540.0" departLane="random" departSpeed="10" />
<vehicle id="N_S_249" type="standard_car" route="N_S" depart="541.0" departLane="random" departSpeed="10" />
<vehicle id="W_E_250" type="standard_car" route="W_E" depart="544.0" departLane="random" departSpeed="10" />
<vehicle id="S_N_251" type="standard_car" route="S_N" depart="544.0" departLane="random" departSpeed="10" />
<vehicle id="E_W_252" type="standard_car" route="E_W" depart="544.0" departLane="random" departSpeed="10" />
<vehicle id="S_N_253" type="standard_car" route="S_N" depart="552.0" departLane="random" departSpeed="10" />
<vehicle id="E_W_254" type="standard_car" route="E_W" depart="555.0" departLane="random" departSpeed="10" />
<vehicle id="S_N_255" type="standard_car" route="S_N" depart="558.0" departLane="random" departSpeed="10" />
<vehicle id="S_N_256" type="standard_car" route="S_N" depart="562.0" departLane="random" departSpeed="10" />
<vehicle id="N_S_257" type="standard_car" route="N_S" depart="569.0" departLane="random" departSpeed="10" />
<vehicle id="S_N_258" type="standard_car" route="S_N" depart="570.0" departLane="random" departSpeed="10" />
<vehicle id="S_N_259" type="standard_car" route="S_N" depart="570.0" departLane="random" departSpeed="10" />
<vehicle id="N_S_260" type="standard_car" route="N_S" depart="570.0" departLane="random" departSpeed="10" />
<vehicle id="N_S_261" type="standard_car" route="N_S" depart="573.0" departLane="random" departSpeed="10" />
<vehicle id="S_N_262" type="standard_car" route="S_N" depart="576.0" departLane="random" departSpeed="10" />
<vehicle id="E_W_263" type="standard_car" route="E_W" depart="577.0" departLane="random" departSpeed="10" />
<vehicle id="E_W_264" type="standard_car" route="E_W" depart="578.0" departLane="random" departSpeed="10" />
<vehicle id="W_E_265" type="standard_car" route="W_E" depart="586.0" departLane="random" departSpeed="10" />
<vehicle id="S_N_266" type="standard_car" route="S_N" depart="586.0" departLane="random" departSpeed="10" />
<vehicle id="E_W_267" type="standard_car" route="E_W" depart="589.0" departLane="random" departSpeed="10" />
<vehicle id="S_N_268" type="standard_car" route="S_N" depart="598.0" departLane="random" departSpeed="10" />
<vehicle id="N_S_269" type="standard_car" route="N_S" depart="613.0" departLane="random" departSpeed="10" />
<vehicle id="N_S_270" type="standard_car" route="N_S" depart="615.0" departLane="random" departSpeed="10" />
<vehicle id="N_S_271" type="standard_car" route="N_S" depart="618.0" departLane="random" departSpeed="10" />
<vehicle id="E_W_272" type="standard_car" route="E_W" depart="619.0" departLane="random" departSpeed="10" />