<routes>
            <vType accel="1.0" decel="4.5" id="standard_car" length="5.0" minGap="2.5" maxSpeed="30" sigma="0.5" />
            <route id="W_E" edges= "west_edge_one east_edge_two"/>
            <route id="W_S" edges= "west_edge_one south_edge_two"/>
            <route id="N_W" edges= "north_edge_one west_edge_two"/>
            <route id="N_S" edges= "north_edge_one south_edge_two"/>
            <route id="E_N" edges= "east_edge_one north_edge_two"/>
            <route id="E_W" edges= "east_edge_one  west_edge_two"/>
            <route id="S_E" edges= "south_edge_one  east_edge_two "/>
            <route id="S_N" edges= "south_edge_one north_edge_two"/> 

            
<vehicle id="E_W_0" type="standard_car" route="E_W" depart="3.0" departLane="random" departSpeed="10" />
<vehicle id="E_W_1" type="standard_car" route="E_W" depart="8.0" departLane="random" departSpeed="10" />
<vehicle id="N_S_2" type="standard_car" route="N_S" depart="8.0" departLane="random" departSpeed="10" />
<vehicle id="S_N_3" type="standard_car" route="S_N" depart="9.0" departLane="random" departSpeed="10" />
<vehicle id="E_W_4" type="standard_car" route="E_W" depart="10.0" departLane="random" departSpeed="10" />
<vehicle id="S_N_5" type="standard_car" route="S_N" depart="11.0" departLane="random" departSpeed="10" />
<vehicle id="S_N_6" type="standard_car" route="S_N" depart="12.0" departLane="random" departSpeed="10" />
<vehicle id="W_E_7" type="standard_car" route="W_E" depart="12.0" departLane="random" departSpeed="10" />
<vehicle id="E_W_8" type="standard_car" route="E_W" depart="13.0" departLane="random" departSpeed="10" />
<vehicle id="E_W_9" type="standard_car" route="E_W" depart="14.0" departLane="random" departSpeed="10" />
<vehicle id="W_E_10" type="standard_car" route="W_E" depart="14.0" departLane="random" departSpeed="10" />
<vehicle id="E_W_11" type="standard_car" route="E_W" depart="15.0" departLane="random" departSpeed="10" />
<vehicle id="S_N_12" type="standard_car" route="S_N" depart="15.0" departLane="random" departSpeed="10" />
<vehicle id="N_S_13" type="standard_car" route="N_S" depart="15.0" departLane="random" departSpeed="10" />
<vehicle id="N_S_14" type="standard_car" route="N_S" depart="18.0" departLane="random" departSpeed="10" />
<vehicle id="S_N_15" type="standard_car" route="S_N" depart="19.0" departLane="random" departSpeed="10" />
<vehicle id="E_W_16" type="standard_car" route="E_W" depart="23.0" departLane="random" departSpeed="10" />
<vehicle id="E_W_17" type="standard_car" route="E_W" depart="24.0" departLane="random" departSpeed="10" />
<vehicle id="N_S_18" type="standard_car" route="N_S" depart="24.0" departLane="random" departSpeed="10" />
<vehicle id="S_N_19" type="standard_car" route="S_N" depart="26.0" departLane="random" departSpeed="10" />
<vehicle id="N_S_20" type="standard_car" route="N_S" depart="29.0" departLane="random" departSpeed="10" />
<vehicle id="E_W_21" type="standard_car" route="E_W" depart="33.0" departLane="random" departSpeed="10" />
<vehicle id="W_E_22" type="standard_car" route="W_E" depart="34.0" departLane="random" departSpeed="10" />
<vehicle id="S_N_23" type="standard_car" route="S_N" depart="39.0" departLane="random" departSpeed="10" />
<vehicle id="W_E_24" type="standard_car" route="W_E" depart="40.0" departLane="random" departSpeed="10" />
<vehicle id="E_W_25" type="standard_car" route="E_W" depart="41.0" departLane="random" departSpeed="10" />
<vehicle id="N_S_26" type="standard_car" route="N_S" depart="42.0" departLane="random" departSpeed="10" />
<vehicle id="S_N_27" type="standard_car" route="S_N" depart="43.0" departLane="random" departSpeed="10" />
<vehicle id="W_E_28" type="standard_car" route="W_E" depart="43.0" departLane="random" departSpeed="10" />
<vehicle id="E_W_29" type="standard_car" route="E_W" depart="44.0" departLane="random" departSpeed="10" />
<vehicle id="W_E_30" type="standard_car" route="W_E" depart="46.0" departLane="random" departSpeed="10" />
<vehicle id="E_W_31" type="standard_car" route="E_W" depart="47.0" departLane="random" departSpeed="10" />
<vehicle id="N_S_32" type="standard_car" route="N_S" depart="47.0" departLane="random" departSpeed="10" />
<vehicle id="E_W_33" type="standard_car" route="E_W" depart="48.0" departLane="random" departSpeed="10" />
<vehicle id="E_W_34" type="standard_car" route="E_W" depart="50.0" departLane="random" departSpeed="10" />
<vehicle id="W_E_35" type="standard_car" route="W_E" depart="50.0" departLane="random" departSpeed="10" />
<vehicle id="N_S_36" type="standard_car" route="N_S" depart="51.0" departLane="random" departSpeed="10" />
<vehicle id="N_S_37" type="standard_car" route="N_S" depart="53.0" departLane="random" departSpeed="10" />
<vehicle id="N_S_38" type="standard_car" route="N_S" depart="53.0" departLane="random" departSpeed="10" />
<vehicle id="S_N_39" type="standard_car" route="S_N" depart="57.0" departLane="random" departSpeed="10" />
<vehicle id="W_E_40" type="standard_car" route="W_E" depart="59.0" departLane="random" departSpeed="10" />
<vehicle id="N_S_41" type="standard_car" route="N_S" depart="60.0" departLane="random" departSpeed="10" />
<vehicle id="N_S_42" type="standard_car" route="N_S" depart="62.0" departLane="random" departSpeed="10" />
<vehicle id="N_S_43" type="standard_car" route="N_S" depart="65.0" departLane="random" departSpeed="10" />
<vehicle id="S_N_44" type="standard_car" route="S_N" depart="67.0" departLane="random" departSpeed="10" />
<vehicle id="W_E_45" type="standard_car" route="W_E" depart="70.0" departLane="random" departSpeed="10" />
<vehicle id="N_S_46" type="standard_car" route="N_S" depart="72.0" departLane="random" departSpeed="10" />
<vehicle id="S_N_47" type="standard_car" route="S_N" depart="73.0" departLane="random" departSpeed="10" />
<vehicle id="N_S_48" type="standard_car" route="N_S" depart="74.0" departLane="random" departSpeed="10" />
<vehicle id="E_W_49" type="standard_car" route="E_W" depart="75.0" departLane="random" departSpeed="10" />
<vehicle id="S_N_50" type="standard_car" route="S_N" depart="75.0" departLane="random" departSpeed="10" />
<vehicle id="W_E_51" type="standard_car" route="W_E" depart="75.0" departLane="random" departSpeed="10" />
<vehicle id="E_W_52" type="standard_car" route="E_W" depart="77.0" departLane="random" departSpeed="10" />
<vehicle id="N_S_53" type="standard_car" route="N_S" depart="80.0" departLane="random" departSpeed="10" />
<vehicle id="N_S_54" type="standard_car" route="N_S" depart="84.0" departLane="random" departSpeed="10" />
<vehicle id="W_E_55" type="standard_car" route="W_E" depart="88.0" departLane="random" departSpeed="10" />
<vehicle id="E_W_56" type="standard_car" route="E_W" depart="89.0" departLane="random" departSpeed="10" />
<vehicle id="E_W_57" type="standard_car" route="E_W" depart="90.0" departLane="random" departSpeed="10" />
<vehicle id="N_S_58" type="standard_car" route="N_S" depart="90.0" departLane="random" departSpeed="10" />
<vehicle id="S_N_59" type="standard_car" route="S_N" depart="91.0" departLane="random" departSpeed="10" />
<vehicle id="N_S_60" type="standard_car" route="N_S" depart="94.0" departLane="random" departSpeed="10" />
<vehicle id="W_E_61" type="standard_car" route="W_E" depart="99.0" departLane="random" departSpeed="10" />
<vehicle id="S_N_62" type="standard_car" route="S_N" depart="99.0" departLane="random" departSpeed="10" />
<vehicle id="S_N_63" type="standard_car" route="S_N" depart="100.0" departLane="random" departSpeed="10" />
<vehicle id="N_S_64" type="standard_car" route="N_S" depart="101.0" departLane="random" departSpeed="10" />
<vehicle id="S_N_65" type="standard_car" route="S_N" depart="101.0" departLane="random" departSpeed="10" />
<vehicle id="N_S_66" type="standard_car" route="N_S" depart="101.0" departLane="random" departSpeed="10" />
<vehicle id="S_N_67" type="standard_car" route="S_N" depart="101.0" departLane="random" departSpeed="10" />
<vehicle id="S_N_68" type="standard_car" route="S_N" depart="102.0" departLane="random" departSpeed="10" />
<vehicle id="S_N_69" type="standard_car" route="S_N" depart="104.0" departLane="random" departSpeed="10" />
<vehicle id="S_N_70" type="standard_car" route="S_N" depart="105.0" departLane="random" departSpeed="10" />
<vehicle id="W_E_71" type="standard_car" route="W_E" depart="106.0" departLane="random" departSpeed="10" />
<vehicle id="W_E_72" type="standard_car" route="W_E" depart="111.0" departLane="random" departSpeed="10" />
<vehicle id="E_W_73" type="standard_car" route="E_W" depart="112.0" departLane="random" departSpeed="10" />
<vehicle id="S_N_74" type="standard_car" route="S_N" depart="114.0" departLane="random" departSpeed="10" />
<vehicle id="E_W_75" type="standard_car" route="E_W" depart="115.0" departLane="random" departSpeed="10" />
<vehicle id="W_E_76" type="standard_car" route="W_E" depart="116.0" departLane="random" departSpeed="10" />
<vehicle id="S_N_77" type="standard_car" route="S_N" depart="118.0" departLane="random" departSpeed="10" />
<vehicle id="E_W_78" type="standard_car" route="E_W" depart="124.0" departLane="random" departSpeed="10" />
<vehicle id="S_N_79" type="standard_car" route="S_N" depart="124.0" departLane="random" departSpeed="10" />
<vehicle id="W_E_80" type="standard_car" route="W_E" depart="125.0" departLane="random" departSpeed="10" />
<vehicle id="N_S_81" type="standard_car" route="N_S" depart="126.0" departLane="random" departSpeed="10" />
<vehicle id="E_W_82" type="standard_car" route="E_W" depart="127.0" departLane="random" departSpeed="10" />
<vehicle id="W_E_83" type="standard_car" route="W_E" depart="127.0" departLane="random" departSpeed="10" />
<vehicle id="N_S_84" type="standard_car" route="N_S" depart="129.0" departLane="random" departSpeed="10" />
<vehicle id="E_W_85" type="standard_car" route="E_W" depart="134.0" departLane="random" departSpeed="10" />
<vehicle id="W_E_86" type="standard_car" route="W_E" depart="135.0" departLane="random" departSpeed="10" />
<vehicle id="W_E_87" type="standard_car" route="W_E" depart="141.0" departLane="random" departSpeed="10" />
<vehicle id="W_E_88" type="standard_car" route="W_E" depart="143.0" departLane="random" departSpeed="10" />
<vehicle id="S_N_89" type="standard_car" route="S_N" depart="145.0" departLane="random" departSpeed="10" />
<vehicle id="S_N_90" type="standard_car" route="S_N" depart="145.0" departLane="random" departSpeed="10" />
<vehicle id="S_N_91" type="standard_car" route="S_N" depart="146.0" departLane="random" departSpeed="10" />
<vehicle id="N_S_92" type="standard_car" route="N_S" depart="147.0" departLane="random" departSpeed="10" />
<vehicle id="N_S_93" type="standard_car" route="N_S" depart="147.0" departLane="random" departSpeed="10" />
<vehicle id="E_W_94" type="standard_car" route="E_W" depart="148.0" departLane="random" departSpeed="10" />
<vehicle id="S_N_95" type="standard_car" route="S_N" depart="150.0" departLane="random" departSpeed="10" />
<vehicle id="E_W_96" type="standard_car" route="E_W" depart="156.0" departLane="random" departSpeed="10" />
<vehicle id="N_S_97" type="standard_car" route="N_S" depart="157.0" departLane="random" departSpeed="10" />
<vehicle id="E_W_98" type="standard_car" route="E_W" depart="159.0" departLane="random" departSpeed="10" />
<vehicle id="S_N_99" type="standard_car" route="S_N" depart="166.0" departLane="random" departSpeed="10" />
<vehicle id="W_E_100" type="standard_car" route="W_E" depart="167.0" departLane="random" departSpeed="10" />
<vehicle id="E_W_101" type="standard_car" route="E_W" depart="168.0" departLane="random" departSpeed="10" />
<vehicle id="N_S_102" type="standard_car" route="N_S" depart="169.0" departLane="random" departSpeed="10" />
<vehicle id="W_E_103" type="standard_car" route="W_E" depart="171.0" departLane="random" departSpeed="10" />
<vehicle id="N_S_104" type="standard_car" route="N_S" depart="173.0" departLane="random" departSpeed="10" />
<vehicle id="N_S_105" type="standard_car" route="N_S" depart="175.0" departLane="random" departSpeed="10" />
<vehicle id="E_W_106" type="standard_car" route="E_W" depart="179.0" departLane="random" departSpeed="10" />
<vehicle id="E_W_107" type="standard_car" route="E_W" depart="180.0" departLane="random" departSpeed="10" />
<vehicle id="N_S_108" type="standard_car" route="N_S" depart="181.0" departLane="random" departSpeed="10" />
<vehicle id="E_W_109" type="standard_car" route="E_W" depart="181.0" departLane="random" departSpeed="10" />
<vehicle id="N_S_110" type="standard_car" route="N_S" depart="184.0" departLane="random" departSpeed="10" />
<vehicle id="E_W_111" type="standard_car" route="E_W" depart="188.0" departLane="random" departSpeed="10" />
<vehicle id="S_N_112" type="standard_car" route="S_N" depart="189.0" departLane="random" departSpeed="10" />
<vehicle id="W_E_113" type="standard_car" route="W_E" depart="189.0" departLane="random" departSpeed="10" />
<vehicle id="W_E_114" type="standard_car" route="W_E" depart="189.0" departLane="random" departSpeed="10" />
<vehicle id="E_W_115" type="standard_car" route="E_W" depart="190.0" departLane="random" departSpeed="10" />
<vehicle id="N_S_116" type="standard_car" route="N_S" depart="194.0" departLane="random" departSpeed="10" />
<vehicle id="N_S_117" type="standard_car" route="N_S" depart="194.0" departLane="random" departSpeed="10" />
<vehicle id="E_W_118" type="standard_car" route="E_W" depart="194.0" departLane="random" departSpeed="10" />
<vehicle id="S_N_119" type="standard_car" route="S_N" depart="196.0" departLane="random" departSpeed="10" />
<vehicle id="E_W_120" type="standard_car" route="E_W" depart="197.0" departLane="random" departSpeed="10" />
<vehicle id="S_N_121" type="standard_car" route="S_N" depart="197.0" departLane="random" departSpeed="10" />
<vehicle id="N_S_122" type="standard_car" route="N_S" depart="200.0" departLane="random" departSpeed="10" />
<vehicle id="S_N_123" type="standard_car" route="S_N" depart="201.0" departLane="random" departSpeed="10" />
<vehicle id="S_N_124" type="standard_car" route="S_N" depart="202.0" departLane="random" departSpeed="10" />
<vehicle id="S_N_125" type="standard_car" route="S_N" depart="204.0" departLane="random" departSpeed="10" />
<vehicle id="S_N_126" type="standard_car" route="S_N" depart="204.0" departLane="random" departSpeed="10" />
<vehicle id="N_S_127" type="standard_car" route="N_S" depart="205.0" departLane="random" departSpeed="10" />
<vehicle id="E_W_128" type="standard_car" route="E_W" depart="207.0" departLane="random" departSpeed="10" />
<vehicle id="W_E_129" type="standard_car" route="W_E" depart="209.0" departLane="random" departSpeed="10" />
<vehicle id="W_E_130" type="standard_car" route="W_E" depart="209.0" departLane="random" departSpeed="10" />
<vehicle id="E_W_131" type="standard_car" route="E_W" depart="209.0" departLane="random" departSpeed="10" />
<vehicle id="E_W_132" type="standard_car" route="E_W" depart="210.0" departLane="random" departSpeed="10" />
<vehicle id="N_S_133" type="standard_car" route="N_S" depart="214.0" departLane="random" departSpeed="10" />
<vehicle id="S_N_134" type="standard_car" route="S_N" depart="215.0" departLane="random" departSpeed="10" />
<vehicle id="S_N_135" type="standard_car" route="S_N" depart="217.0" departLane="random" departSpeed="10" />
<vehicle id="W_E_136" type="standard_car" route="W_E" depart="218.0" departLane="random" departSpeed="10" />
<vehicle id="W_E_137" type="standard_car" route="W_E" depart="219.0" departLane="random" departSpeed="10" />
<vehicle id="N_S_138" type="standard_car" route="N_S" depart="220.0" departLane="random" departSpeed="10" />
<vehicle id="S_N_139" type="standard_car" route="S_N" depart="225.0" departLane="random" departSpeed="10" />
<vehicle id="S_N_140" type="standard_car" route="S_N" depart="225.0" departLane="random" departSpeed="10" />
<vehicle id="S_N_141" type="standard_car" route="S_N" depart="226.0" departLane="random" departSpeed="10" />
<vehicle id="S_N_142" type="standard_car" route="S_N" depart="227.0" departLane="random" departSpeed="10" />
<vehicle id="E_W_143" type="standard_car" route="E_W" depart="228.0" departLane="random" departSpeed="10" />
<vehicle id="E_W_144" type="standard_car" route="E_W" depart="228.0" departLane="random" departSpeed="10" />
<vehicle id="W_E_145" type="standard_car" route="W_E" depart="230.0" departLane="random" departSpeed="10" />
<vehicle id="N_S_146" type="standard_car" route="N_S" depart="232.0" departLane="random" departSpeed="10" />
<vehicle id="N_S_147" type="standard_car" route="N_S" depart="232.0" departLane="random" departSpeed="10" />
<vehicle id="S_N_148" type="standard_car" route="S_N" depart="236.0" departLane="random" departSpeed="10" />
<vehicle id="W_E_149" type="standard_car" route="W_E" depart="237.0" departLane="random" departSpeed="10" />
<vehicle id="N_S_150" type="standard_car" route="N_S" depart="238.0" departLane="random" departSpeed="10" />
<vehicle id="N_S_151" type="standard_car" route="N_S" depart="242.0" departLane="random" departSpeed="10" />
<vehicle id="E_W_152" type="standard_car" route="E_W" depart="243.0" departLane="random" departSpeed="10" />
<vehicle id="W_E_153" type="standard_car" route="W_E" depart="244.0" departLane="random" departSpeed="10" />
<vehicle id="S_N_154" type="standard_car" route="S_N" depart="245.0" departLane="random" departSpeed="10" />
<vehicle id="W_E_155" type="standard_car" route="W_E" depart="247.0" departLane="random" departSpeed="10" />
<vehicle id="N_S_156" type="standard_car" route="N_S" depart="247.0" departLane="random" departSpeed="10" />
<vehicle id="W_E_157" type="standard_car" route="W_E" depart="248.0" departLane="random" departSpeed="10" />
<vehicle id="N_S_158" type="standard_car" route="N_S" depart="251.0" departLane="random" departSpeed="10" />
<vehicle id="S_N_159" type="standard_car" route="S_N" depart="251.0" departLane="random" departSpeed="10" />
<vehicle id="E_W_160" type="standard_car" route="E_W" depart="252.0" departLane="random" departSpeed="10" />
<vehicle id="S_N_161" type="standard_car" route="S_N" depart="253.0" departLane="random" departSpeed="10" />
<vehicle id="W_E_162" type="standard_car" route="W_E" depart="256.0" departLane="random" departSpeed="10" />
<vehicle id="E_W_163" type="standard_car" route="E_W" depart="256.0" departLane="random" departSpeed="10" />
<vehicle id="E_W_164" type="standard_car" route="E_W" depart="259.0" departLane="random" departSpeed="10" />
<vehicle id="E_W_165" type="standard_car" route="E_W" depart="262.0" departLane="random" departSpeed="10" />
<vehicle id="N_S_166" type="standard_car" route="N_S" depart="267.0" departLane="random" departSpeed="10" />
<vehicle id="E_W_167" type="standard_car" route="E_W" depart="267.0" departLane="random" departSpeed="10" />
<vehicle id="S_N_168" type="standard_car" route="S_N" depart="271.0" departLane="random" departSpeed="10" />
<vehicle id="N_S_169" type="standard_car" route="N_S" depart="273.0" departLane="random" departSpeed="10" />
<vehicle id="E_W_170" type="standard_car" route="E_W" depart="274.0" departLane="random" departSpeed="10" />
<vehicle id="E_W_171" type="standard_car" route="E_W" depart="275.0" departLane="random" departSpeed="10" />
<vehicle id="N_S_172" type="standard_car" route="N_S" depart="283.0" departLane="random" departSpeed="10" />
<vehicle id="W_E_173" type="standard_car" route="W_E" depart="284.0" departLane="random" departSpeed="10" />
<vehicle id="S_N_174" type="standard_car" route="S_N" depart="289.0" departLane="random" departSpeed="10" />
<vehicle id="N_S_175" type="standard_car" route="N_S" depart="295.0" departLane="random" departSpeed="10" />
<vehicle id="S_N_176" type="standard_car" route="S_N" depart="303.0" departLane="random" departSpeed="10" />
<vehicle id="N_S_177" type="standard_car" route="N_S" depart="305.0" departLane="random" departSpeed="10" />
<vehicle id="W_E_178" type="standard_car" route="W_E" depart="306.0" departLane="random" departSpeed="10" />
<vehicle id="E_W_179" type="standard_car" route="E_W" depart="314.0" departLane="random" departSpeed="10" />
<vehicle id="E_W_180" type="standard_car" route="E_W" depart="314.0" departLane="random" departSpeed="10" />
<vehicle id="E_W_181" type="standard_car" route="E_W" depart="315.0" departLane="random" departSpeed="10" />
<vehicle id="W_E_182" type="standard_car" route="W_E" depart="318.0" departLane="random" departSpeed="10" />
<vehicle id="S_N_183" type="standard_car" route="S_N" depart="319.0" departLane="random" departSpeed="10" />
<vehicle id="W_E_184" type="standard_car" route="W_E" depart="319.0" departLane="random" departSpeed="10" />
<vehicle id="N_S_185" type="standard_car" route="N_S" depart="323.0" departLane="random" departSpeed="10" />
<vehicle id="S_N_186" type="standard_car" route="S_N" depart="327.0" departLane="random" departSpeed="10" />
<vehicle id="N_S_187" type="standard_car" route="N_S" depart="328.0" departLane="random" departSpeed="10" />
<vehicle id="S_N_188" type="standard_car" route="S_N" depart="329.0" departLane="random" departSpeed="10" />
<vehicle id="W_E_189" type="standard_car" route="W_E" depart="331.0" departLane="random" departSpeed="10" />
<vehicle id="S_N_190" type="standard_car" route="S_N" depart="334.0" departLane="random" departSpeed="10" />
<vehicle id="W_E_191" type="standard_car" route="W_E" depart="335.0" departLane="random" departSpeed="10" />
<vehicle id="N_S_192" type="standard_car" route="N_S" depart="335.0" departLane="random" departSpeed="10" />
<vehicle id="E_W_193" type="standard_car" route="E_W" depart="339.0" departLane="random" departSpeed="10" />
<vehicle id="N_S_194" type="standard_car" route="N_S" depart="340.0" departLane="random" departSpeed="10" />
<vehicle id="E_W_195" type="standard_car" route="E_W" depart="341.0" departLane="random" departSpeed="10" />
<vehicle id="W_E_196" type="standard_car" route="W_E" depart="345.0" departLane="random" departSpeed="10" />
<vehicle id="W_E_197" type="standard_car" route="W_E" depart="345.0" departLane="random" departSpeed="10" />
<vehicle id="N_S_198" type="standard_car" route="N_S" depart="345.0" departLane="random" departSpeed="10" />
<vehicle id="S_N_199" type="standard_car" route="S_N" depart="356.0" departLane="random" departSpeed="10" />
<vehicle id="E_W_200" type="standard_car" route="E_W" depart="360.0" departLane="random" departSpeed="10" />
<vehicle id="E_W_201" type="standard_car" route="E_W" depart="361.0" departLane="random" departSpeed="10" />
<vehicle id="W_E_202" type="standard_car" route="W_E" depart="363.0" departLane="random" departSpeed="10" />
<vehicle id="W_E_203" type="standard_car" route="W_E" depart="363.0" departLane="random" departSpeed="10" />
<vehicle id="E_W_204" type="standard_car" route="E_W" depart="364.0" departLane="random" departSpeed="10" />
<vehicle id="W_E_205" type="standard_car" route="W_E" depart="366.0" departLane="random" departSpeed="10" />
<vehicle id="E_W_206" type="standard_car" route="E_W" depart="367.0" departLane="random" departSpeed="10" />
<vehicle id="W_E_207" type="standard_car" route="W_E" depart="373.0" departLane="random" departSpeed="10" />
<vehicle id="W_E_208" type="standard_car" route="W_E" depart="373.0" departLane="random" departSpeed="10" />
<vehicle id="S_N_209" type="standard_car" route="S_N" depart="374.0" departLane="random" departSpeed="10" />
<vehicle id="W_E_210" type="standard_car" route="W_E" depart="376.0" departLane="random" departSpeed="10" />
<vehicle id="N_S_211" type="standard_car" route="N_S" depart="382.0" departLane="random" departSpeed="10" />
<vehicle id="S_N_212" type="standard_car" route="S_N" depart="383.0" departLane="random" departSpeed="10" />
<vehicle id="N_S_213" type="standard_car" route="N_S" depart="383.0" departLane="random" departSpeed="10" />
<vehicle id="W_E_214" type="standard_car" route="W_E" depart="386.0" departLane="random" departSpeed="10" />
<vehicle id="W_E_215" type="standard_car" route="W_E" depart="390.0" departLane="random" departSpeed="10" />
<vehicle id="E_W_216" type="standard_car" route="E_W" depart="394.0" departLane="random" departSpeed="10" />
<vehicle id="N_S_217" type="standard_car" route="N_S" depart="394.0" departLane="random" departSpeed="10" />
<vehicle id="E_W_218" type="standard_car" route="E_W" depart="394.0" departLane="random" departSpeed="10" />
<vehicle id="S_N_219" type="standard_car" route="S_N" depart="394.0" departLane="random" departSpeed="10" />
<vehicle id="S_N_220" type="standard_car" route="S_N" depart="395.0" departLane="random" departSpeed="10" />
<vehicle id="S_N_221" type="standard_car" route="S_N" depart="400.0" departLane="random" departSpeed="10" />
<vehicle id="W_E_222" type="standard_car" route="W_E" depart="400.0" departLane="random" departSpeed="10" />
<vehicle id="S_N_223" type="standard_car" route="S_N" depart="402.0" departLane="random" departSpeed="10" />
<vehicle id="E_W_224" type="standard_car" route="E_W" depart="403.0" departLane="random" departSpeed="10" />
<vehicle id="S_N_225" type="standard_car" route="S_N" depart="407.0" departLane="random" departSpeed="10" />
<vehicle id="N_S_226" type="standard_car" route="N_S" depart="409.0" departLane="random" departSpeed="10" />
<vehicle id="S_N_227" type="standard_car" route="S_N" depart="410.0" departLane="random" departSpeed="10" />
<vehicle id="S_N_228" type="standard_car" route="S_N" depart="411.0" departLane="random" departSpeed="10" />
<vehicle id="E_W_229" type="standard_car" route="E_W" depart="412.0" departLane="random" departSpeed="10" />
<vehicle id="N_S_230" type="standard_car" route="N_S" depart="423.0" departLane="random" departSpeed="10" />
<vehicle id="E_W_231" type="standard_car" route="E_W" depart="426.0" departLane="random" departSpeed="10" />
<vehicle id="E_W_232" type="standard_car" route="E_W" depart="429.0" departLane="random" departSpeed="10" />
<vehicle id="E_W_233" type="standard_car" route="E_W" depart="432.0" departLane="random" departSpeed="10" />
<vehicle id="N_S_234" type="standard_car" route="N_S" depart="432.0" departLane="random" departSpeed="10" />
<vehicle id="N_S_235" type="standard_car" route="N_S" depart="432.0" departLane="random" departSpeed="10" />
<vehicle id="E_W_236" type="standard_car" route="E_W" depart="434.0" departLane="random" departSpeed="10" />
<vehicle id="N_S_237" type="standard_car" route="N_S" depart="435.0" departLane="random" departSpeed="10" />
<vehicle id="W_E_238" type="standard_car" route="W_E" depart="435.0" departLane="random" departSpeed="10" />
<vehicle id="W_E_239" type="standard_car" route="W_E" depart="436.0" departLane="random" departSpeed="10" />
<vehicle id="W_E_240" type="standard_car" route="W_E" depart="436.0" departLane="random" departSpeed="10" />
<vehicle id="S_N_241" type="standard_car" route="S_N" depart="438.0" departLane="random" departSpeed="10" />
<vehicle id="W_E_242" type="standard_car" route="W_E" depart="438.0" departLane="random" departSpeed="10" />
<vehicle id="W_E_243" type="standard_car" route="W_E" depart="440.0" departLane="random" departSpeed="10" />
<vehicle id="N_S_244" type="standard_car" route="N_S" depart="442.0" departLane="random" departSpeed="10" />
<vehicle id="W_E_245" type="standard_car" route="W_E" depart="445.0" departLane="random" departSpeed="10" />
<vehicle id="S_N_246" type="standard_car" route="S_N" depart="449.0" departLane="random" departSpeed="10" />
<vehicle id="S_N_247" type="standard_car" route="S_N" depart="452.0" departLane="random" departSpeed="10" />
<vehicle id="S_N_248" type="standard_car" route="S_N" depart="465.0" departLane="random" departSpeed="10" />
<vehicle id="N_S_249" type="standard_car" route="N_S" depart="475.0" departLane="random" departSpeed="10" />
<vehicle id="E_W_250" type="standard_car" route="E_W" depart="478.0" departLane="random" departSpeed="10" />
<vehicle id="N_S_251" type="standard_car" route="N_S" depart="481.0" departLane="random" departSpeed="10" />
<vehicle id="S_N_252" type="standard_car" route="S_N" depart="482.0" departLane="random" departSpeed="10" />
<vehicle id="N_S_253" type="standard_car" route="N_S" depart="491.0" departLane="random" departSpeed="10" />
<vehicle id="E_W_254" type="standard_car" route="E_W" depart="497.0" departLane="random" departSpeed="10" />
<vehicle id="S_N_255" type="standard_car" route="S_N" depart="499.0" departLane="random" departSpeed="10" />
<vehicle id="E_W_256" type="standard_car" route="E_W" depart="504.0" departLane="random" departSpeed="10" />
<vehicle id="W_E_257" type="standard_car" route="W_E" depart="510.0" departLane="random" departSpeed="10" />
<vehicle id="E_W_258" type="standard_car" route="E_W" depart="511.0" departLane="random" departSpeed="10" />
<vehicle id="E_W_259" type="standard_car" route="E_W" depart="520.0" departLane="random" departSpeed="10" />
<vehicle id="S_N_260" type="standard_car" route="S_N" depart="520.0" departLane="random" departSpeed="10" />
<vehicle id="N_S_261" type="standard_car" route="N_S" depart="522.0" departLane="random" departSpeed="10" />
<vehicle id="E_W_262" type="standard_car" route="E_W" depart="523.0" departLane="random" departSpeed="10" />
<vehicle id="E_W_263" type="standard_car" route="E_W" depart="526.0" departLane="random" departSpeed="10" />
<vehicle id="S_N_264" type="standard_car" route="S_N" depart="527.0" departLane="random" departSpeed="10" />
<vehicle id="S_N_265" type="standard_car" route="S_N" depart="529.0" departLane="random" departSpeed="10" />
<vehicle id="S_N_266" type="standard_car" route="S_N" depart="538.0" departLane="random" departSpeed="10" />
<vehicle id="E_W_267" type="standard_car" route="E_W" depart="548.0" departLane="random" departSpeed="10" />
<vehicle id="S_N_268" type="standard_car" route="S_N" depart="549.0" departLane="random" departSpeed="10" />
<vehicle id="S_N_269" type="standard_car" route="S_N" depart="549.0" departLane="random" departSpeed="10" />