<routes>
            <vType accel="1.0" decel="4.5" id="standard_car" length="5.0" minGap="2.5" maxSpeed="30" sigma="0.5" />
            <route id="W_E" edges= "west_edge_one east_edge_two"/>
            <route id="W_S" edges= "west_edge_one south_edge_two"/>
            <route id="N_W" edges= "north_edge_one west_edge_two"/>
            <route id="N_S" edges= "north_edge_one south_edge_two"/>
            <route id="E_N" edges= "east_edge_one north_edge_two"/>
            <route id="E_W" edges= "east_edge_one  west_edge_two"/>
            <route id="S_E" edges= "south_edge_one  east_edge_two "/>
            <route id="S_N" edges= "south_edge_one north_edge_two"/> 

            
<vehicle id="W_E_0" type="standard_car" route="W_E" depart="0.0" departLane="random" departSpeed="10" />
<vehicle id="E_W_1" type="standard_car" route="E_W" depart="0.0" departLane="random" departSpeed="10" />
<vehicle id="E_W_2" type="standard_car" route="E_W" depart="2.0" departLane="random" departSpeed="10" />
<vehicle id="W_E_3" type="standard_car" route="W_E" depart="3.0" departLane="random" departSpeed="10" />
<vehicle id="N_S_4" type="standard_car" route="N_S" depart="8.0" departLane="random" departSpeed="10" />
<vehicle id="E_W_5" type="standard_car" route="E_W" depart="9.0" departLane="random" departSpeed="10" />
<vehicle id="S_N_6" type="standard_car" route="S_N" depart="11.0" departLane="random" departSpeed="10" />
<vehicle id="W_E_7" type="standard_car" route="W_E" depart="12.0" departLane="random" departSpeed="10" />
<vehicle id="S_N_8" type="standard_car" route="S_N" depart="13.0" departLane="random" departSpeed="10" />
<vehicle id="E_W_9" type="standard_car" route="E_W" depart="13.0" departLane="random" departSpeed="10" />
<vehicle id="N_S_10" type="standard_car" route="N_S" depart="13.0" departLane="random" departSpeed="10" />
<vehicle id="E_W_11" type="standard_car" route="E_W" depart="15.0" departLane="random" departSpeed="10" />
<vehicle id="W_E_12" type="standard_car" route="W_E" depart="15.0" departLane="random" departSpeed="10" />
<vehicle id="E_W_13" type="standard_car" route="E_W" depart="16.0" departLane="random" departSpeed="10" />
<vehicle id="N_S_14" type="standard_car" route="N_S" depart="16.0" departLane="random" departSpeed="10" />
<vehicle id="N_S_15" type="standard_car" route="N_S" depart="16.0" departLane="random" departSpeed="10" />
<vehicle id="N_S_16" type="standard_car" route="N_S" depart="17.0" departLane="random" departSpeed="10" />
<vehicle id="W_E_17" type="standard_car" route="W_E" depart="18.0" departLane="random" departSpeed="10" />
<vehicle id="N_S_18" type="standard_car" route="N_S" depart="19.0" departLane="random" departSpeed="10" />
<vehicle id="S_N_19" type="standard_car" route="S_N" depart="22.0" departLane="random" departSpeed="10" />
<vehicle id="S_N_20" type="standard_car" route="S_N" depart="22.0" departLane="random" departSpeed="10" />
<vehicle id="N_S_21" type="standard_car" route="N_S" depart="23.0" departLane="random" departSpeed="10" />
<vehicle id="S_N_22" type="standard_car" route="S_N" depart="23.0" departLane="random" departSpeed="10" />
<vehicle id="S_N_23" type="standard_car" route="S_N" depart="23.0" departLane="random" departSpeed="10" />
<vehicle id="N_S_24" type="standard_car" route="N_S" depart="23.0" departLane="random" departSpeed="10" />
<vehicle id="W_E_25" type="standard_car" route="W_E" depart="24.0" departLane="random" departSpeed="10" />
<vehicle id="W_E_26" type="standard_car" route="W_E" depart="26.0" departLane="random" departSpeed="10" />
<vehicle id="W_E_27" type="standard_car" route="W_E" depart="26.0" departLane="random" departSpeed="10" />
<vehicle id="N_S_28" type="standard_car" route="N_S" depart="27.0" departLane="random" departSpeed="10" />
<vehicle id="E_W_29" type="standard_car" route="E_W" depart="29.0" departLane="random" departSpeed="10" />
<vehicle id="S_N_30" type="standard_car" route="S_N" depart="31.0" departLane="random" departSpeed="10" />
<vehicle id="W_E_31" type="standard_car" route="W_E" depart="33.0" departLane="random" departSpeed="10" />
<vehicle id="S_N_32" type="standard_car" route="S_N" depart="38.0" departLane="random" departSpeed="10" />
<vehicle id="S_N_33" type="standard_car" route="S_N" depart="43.0" departLane="random" departSpeed="10" />
<vehicle id="S_N_34" type="standard_car" route="S_N" depart="46.0" departLane="random" departSpeed="10" />
<vehicle id="N_S_35" type="standard_car" route="N_S" depart="46.0" departLane="random" departSpeed="10" />
<vehicle id="N_S_36" type="standard_car" route="N_S" depart="49.0" departLane="random" departSpeed="10" />
<vehicle id="N_S_37" type="standard_car" route="N_S" depart="51.0" departLane="random" departSpeed="10" />
<vehicle id="W_E_38" type="standard_car" route="W_E" depart="57.0" departLane="random" departSpeed="10" />
<vehicle id="E_W_39" type="standard_car" route="E_W" depart="57.0" departLane="random" departSpeed="10" />
<vehicle id="N_S_40" type="standard_car" route="N_S" depart="57.0" departLane="random" departSpeed="10" />
<vehicle id="S_N_41" type="standard_car" route="S_N" depart="57.0" departLane="random" departSpeed="10" />
<vehicle id="N_S_42" type="standard_car" route="N_S" depart="58.0" departLane="random" departSpeed="10" />
<vehicle id="N_S_43" type="standard_car" route="N_S" depart="59.0" departLane="random" departSpeed="10" />
<vehicle id="W_E_44" type="standard_car" route="W_E" depart="60.0" departLane="random" departSpeed="10" />
<vehicle id="W_E_45" type="standard_car" route="W_E" depart="62.0" departLane="random" departSpeed="10" />
<vehicle id="S_N_46" type="standard_car" route="S_N" depart="68.0" departLane="random" departSpeed="10" />
<vehicle id="E_W_47" type="standard_car" route="E_W" depart="69.0" departLane="random" departSpeed="10" />
<vehicle id="S_N_48" type="standard_car" route="S_N" depart="71.0" departLane="random" departSpeed="10" />
<vehicle id="E_W_49" type="standard_car" route="E_W" depart="74.0" departLane="random" departSpeed="10" />
<vehicle id="E_W_50" type="standard_car" route="E_W" depart="81.0" departLane="random" departSpeed="10" />
<vehicle id="N_S_51" type="standard_car" route="N_S" depart="86.0" departLane="random" departSpeed="10" />
<vehicle id="S_N_52" type="standard_car" route="S_N" depart="87.0" departLane="random" departSpeed="10" />
<vehicle id="N_S_53" type="standard_car" route="N_S" depart="90.0" departLane="random" departSpeed="10" />
<vehicle id="W_E_54" type="standard_car" route="W_E" depart="90.0" departLane="random" departSpeed="10" />
<vehicle id="E_W_55" type="standard_car" route="E_W" depart="91.0" departLane="random" departSpeed="10" />
<vehicle id="N_S_56" type="standard_car" route="N_S" depart="95.0" departLane="random" departSpeed="10" />
<vehicle id="N_S_57" type="standard_car" route="N_S" depart="96.0" departLane="random" departSpeed="10" />
<vehicle id="S_N_58" type="standard_car" route="S_N" depart="98.0" departLane="random" departSpeed="10" />
<vehicle id="W_E_59" type="standard_car" route="W_E" depart="100.0" departLane="random" departSpeed="10" />
<vehicle id="W_E_60" type="standard_car" route="W_E" depart="102.0" departLane="random" departSpeed="10" />
<vehicle id="N_S_61" type="standard_car" route="N_S" depart="106.0" departLane="random" departSpeed="10" />
<vehicle id="S_N_62" type="standard_car" route="S_N" depart="108.0" departLane="random" departSpeed="10" />
<vehicle id="W_E_63" type="standard_car" route="W_E" depart="110.0" departLane="random" departSpeed="10" />
<vehicle id="N_S_64" type="standard_car" route="N_S" depart="111.0" departLane="random" departSpeed="10" />
<vehicle id="N_S_65" type="standard_car" route="N_S" depart="112.0" departLane="random" departSpeed="10" />
<vehicle id="E_W_66" type="standard_car" route="E_W" depart="113.0" departLane="random" departSpeed="10" />
<vehicle id="S_N_67" type="standard_car" route="S_N" depart="116.0" departLane="random" departSpeed="10" />
<vehicle id="N_S_68" type="standard_car" route="N_S" depart="117.0" departLane="random" departSpeed="10" />
<vehicle id="W_E_69" type="standard_car" route="W_E" depart="121.0" departLane="random" departSpeed="10" />
<vehicle id="N_S_70" type="standard_car" route="N_S" depart="121.0" departLane="random" departSpeed="10" />
<vehicle id="S_N_71" type="standard_car" route="S_N" depart="122.0" departLane="random" departSpeed="10" />
<vehicle id="S_N_72" type="standard_car" route="S_N" depart="123.0" departLane="random" departSpeed="10" />
<vehicle id="N_S_73" type="standard_car" route="N_S" depart="123.0" departLane="random" departSpeed="10" />
<vehicle id="N_S_74" type="standard_car" route="N_S" depart="125.0" departLane="random" departSpeed="10" />
<vehicle id="N_S_75" type="standard_car" route="N_S" depart="126.0" departLane="random" departSpeed="10" />
<vehicle id="E_W_76" type="standard_car" route="E_W" depart="129.0" departLane="random" departSpeed="10" />
<vehicle id="N_S_77" type="standard_car" route="N_S" depart="129.0" departLane="random" departSpeed="10" />
<vehicle id="N_S_78" type="standard_car" route="N_S" depart="130.0" departLane="random" departSpeed="10" />
<vehicle id="E_W_79" type="standard_car" route="E_W" depart="131.0" departLane="random" departSpeed="10" />
<vehicle id="S_N_80" type="standard_car" route="S_N" depart="132.0" departLane="random" departSpeed="10" />
<vehicle id="W_E_81" type="standard_car" route="W_E" depart="132.0" departLane="random" departSpeed="10" />
<vehicle id="S_N_82" type="standard_car" route="S_N" depart="132.0" departLane="random" departSpeed="10" />
<vehicle id="E_W_83" type="standard_car" route="E_W" depart="138.0" departLane="random" departSpeed="10" />
<vehicle id="S_N_84" type="standard_car" route="S_N" depart="142.0" departLane="random" departSpeed="10" />
<vehicle id="E_W_85" type="standard_car" route="E_W" depart="143.0" departLane="random" departSpeed="10" />
<vehicle id="S_N_86" type="standard_car" route="S_N" depart="146.0" departLane="random" departSpeed="10" />
<vehicle id="E_W_87" type="standard_car" route="E_W" depart="146.0" departLane="random" departSpeed="10" />
<vehicle id="E_W_88" type="standard_car" route="E_W" depart="151.0" departLane="random" departSpeed="10" />
<vehicle id="S_N_89" type="standard_car" route="S_N" depart="155.0" departLane="random" departSpeed="10" />
<vehicle id="E_W_90" type="standard_car" route="E_W" depart="158.0" departLane="random" departSpeed="10" />
<vehicle id="S_N_91" type="standard_car" route="S_N" depart="159.0" departLane="random" departSpeed="10" />
<vehicle id="S_N_92" type="standard_car" route="S_N" depart="159.0" departLane="random" departSpeed="10" />
<vehicle id="E_W_93" type="standard_car" route="E_W" depart="162.0" departLane="random" departSpeed="10" />
<vehicle id="E_W_94" type="standard_car" route="E_W" depart="167.0" departLane="random" departSpeed="10" />
<vehicle id="W_E_95" type="standard_car" route="W_E" depart="169.0" departLane="random" departSpeed="10" />
<vehicle id="W_E_96" type="standard_car" route="W_E" depart="172.0" departLane="random" departSpeed="10" />
<vehicle id="E_W_97" type="standard_car" route="E_W" depart="173.0" departLane="random" departSpeed="10" />
<vehicle id="W_E_98" type="standard_car" route="W_E" depart="174.0" departLane="random" departSpeed="10" />
<vehicle id="W_E_99" type="standard_car" route="W_E" depart="179.0" departLane="random" departSpeed="10" />
<vehicle id="N_S_100" type="standard_car" route="N_S" depart="179.0" departLane="random" departSpeed="10" />
<vehicle id="S_N_101" type="standard_car" route="S_N" depart="181.0" departLane="random" departSpeed="10" />
<vehicle id="W_E_102" type="standard_car" route="W_E" depart="184.0" departLane="random" departSpeed="10" />
<vehicle id="E_W_103" type="standard_car" route="E_W" depart="184.0" departLane="random" departSpeed="10" />
<vehicle id="E_W_104" type="standard_car" route="E_W" depart="189.0" departLane="random" departSpeed="10" />
<vehicle id="S_N_105" type="standard_car" route="S_N" depart="190.0" departLane="random" departSpeed="10" />
<vehicle id="S_N_106" type="standard_car" route="S_N" depart="191.0" departLane="random" departSpeed="10" />
<vehicle id="N_S_107" type="standard_car" route="N_S" depart="195.0" departLane="random" departSpeed="10" />
<vehicle id="E_W_108" type="standard_car" route="E_W" depart="197.0" departLane="random" departSpeed="10" />
<vehicle id="S_N_109" type="standard_car" route="S_N" depart="198.0" departLane="random" departSpeed="10" />
<vehicle id="E_W_110" type="standard_car" route="E_W" depart="199.0" departLane="random" departSpeed="10" />
<vehicle id="S_N_111" type="standard_car" route="S_N" depart="209.0" departLane="random" departSpeed="10" />
<vehicle id="S_N_112" type="standard_car" route="S_N" depart="209.0" departLane="random" departSpeed="10" />
<vehicle id="N_S_113" type="standard_car" route="N_S" depart="212.0" departLane="random" departSpeed="10" />
<vehicle id="W_E_114" type="standard_car" route="W_E" depart="213.0" departLane="random" departSpeed="10" />
<vehicle id="S_N_115" type="standard_car" route="S_N" depart="216.0" departLane="random" departSpeed="10" />
<vehicle id="W_E_116" type="standard_car" route="W_E" depart="221.0" departLane="random" departSpeed="10" />
<vehicle id="E_W_117" type="standard_car" route="E_W" depart="222.0" departLane="random" departSpeed="10" />
<vehicle id="E_W_118" type="standard_car" route="E_W" depart="223.0" departLane="random" departSpeed="10" />
<vehicle id="E_W_119" type="standard_car" route="E_W" depart="225.0" departLane="random" departSpeed="10" />
<vehicle id="W_E_120" type="standard_car" route="W_E" depart="229.0" departLane="random" departSpeed="10" />
<vehicle id="S_N_121" type="standard_car" route="S_N" depart="236.0" departLane="random" departSpeed="10" />
<vehicle id="W_E_122" type="standard_car" route="W_E" depart="237.0" departLane="random" departSpeed="10" />
<vehicle id="N_S_123" type="standard_car" route="N_S" depart="237.0" departLane="random" departSpeed="10" />
<vehicle id="S_N_124" type="standard_car" route="S_N" depart="238.0" departLane="random" departSpeed="10" />
<vehicle id="E_W_125" type="standard_car" route="E_W" depart="240.0" departLane="random" departSpeed="10" />
<vehicle id="N_S_126" type="standard_car" route="N_S" depart="242.0" departLane="random" departSpeed="10" />
<vehicle id="S_N_127" type="standard_car" route="S_N" depart="242.0" departLane="random" departSpeed="10" />
<vehicle id="N_S_128" type="standard_car" route="N_S" depart="248.0" departLane="random" departSpeed="10" />
<vehicle id="N_S_129" type="standard_car" route="N_S" depart="248.0" departLane="random" departSpeed="10" />
<vehicle id="E_W_130" type="standard_car" route="E_W" depart="251.0" departLane="random" departSpeed="10" />
<vehicle id="S_N_131" type="standard_car" route="S_N" depart="251.0" departLane="random" departSpeed="10" />
<vehicle id="S_N_132" type="standard_car" route="S_N" depart="253.0" departLane="random" departSpeed="10" />
<vehicle id="E_W_133" type="standard_car" route="E_W" depart="255.0" departLane="random" departSpeed="10" />
<vehicle id="S_N_134" type="standard_car" route="S_N" depart="256.0" departLane="random" departSpeed="10" />
<vehicle id="W_E_135" type="standard_car" route="W_E" depart="256.0" departLane="random" departSpeed="10" />
<vehicle id="S_N_136" type="standard_car" route="S_N" depart="257.0" departLane="random" departSpeed="10" />
<vehicle id="W_E_137" type="standard_car" route="W_E" depart="258.0" departLane="random" departSpeed="10" />
<vehicle id="E_W_138" type="standard_car" route="E_W" depart="259.0" departLane="random" departSpeed="10" />
<vehicle id="E_W_139" type="standard_car" route="E_W" depart="262.0" departLane="random" departSpeed="10" />
<vehicle id="W_E_140" type="standard_car" route="W_E" depart="262.0" departLane="random" departSpeed="10" />
<vehicle id="S_N_141" type="standard_car" route="S_N" depart="273.0" departLane="random" departSpeed="10" />
<vehicle id="E_W_142" type="standard_car" route="E_W" depart="274.0" departLane="random" departSpeed="10" />
<vehicle id="N_S_143" type="standard_car" route="N_S" depart="280.0" departLane="random" departSpeed="10" />
<vehicle id="N_S_144" type="standard_car" route="N_S" depart="280.0" departLane="random" departSpeed="10" />
<vehicle id="W_E_145" type="standard_car" route="W_E" depart="283.0" departLane="random" departSpeed="10" />
<vehicle id="E_W_146" type="standard_car" route="E_W" depart="286.0" departLane="random" departSpeed="10" />
<vehicle id="W_E_147" type="standard_car" route="W_E" depart="290.0" departLane="random" departSpeed="10" />
<vehicle id="N_S_148" type="standard_car" route="N_S" depart="294.0" departLane="random" departSpeed="10" />
<vehicle id="E_W_149" type="standard_car" route="E_W" depart="298.0" departLane="random" departSpeed="10" />
<vehicle id="E_W_150" type="standard_car" route="E_W" depart="300.0" departLane="random" departSpeed="10" />
<vehicle id="W_E_151" type="standard_car" route="W_E" depart="310.0" departLane="random" departSpeed="10" />
<vehicle id="S_N_152" type="standard_car" route="S_N" depart="311.0" departLane="random" departSpeed="10" />
<vehicle id="W_E_153" type="standard_car" route="W_E" depart="312.0" departLane="random" departSpeed="10" />
<vehicle id="S_N_154" type="standard_car" route="S_N" depart="313.0" departLane="random" departSpeed="10" />
<vehicle id="W_E_155" type="standard_car" route="W_E" depart="315.0" departLane="random" departSpeed="10" />
<vehicle id="N_S_156" type="standard_car" route="N_S" depart="316.0" departLane="random" departSpeed="10" />
<vehicle id="W_E_157" type="standard_car" route="W_E" depart="316.0" departLane="random" departSpeed="10" />
<vehicle id="S_N_158" type="standard_car" route="S_N" depart="318.0" departLane="random" departSpeed="10" />
<vehicle id="W_E_159" type="standard_car" route="W_E" depart="318.0" departLane="random" departSpeed="10" />
<vehicle id="N_S_160" type="standard_car" route="N_S" depart="325.0" departLane="random" departSpeed="10" />
<vehicle id="S_N_161" type="standard_car" route="S_N" depart="327.0" departLane="random" departSpeed="10" />
<vehicle id="W_E_162" type="standard_car" route="W_E" depart="329.0" departLane="random" departSpeed="10" />
<vehicle id="N_S_163" type="standard_car" route="N_S" depart="330.0" departLane="random" departSpeed="10" />
<vehicle id="E_W_164" type="standard_car" route="E_W" depart="336.0" departLane="random" departSpeed="10" />
<vehicle id="S_N_165" type="standard_car" route="S_N" depart="349.0" departLane="random" departSpeed="10" />
<vehicle id="S_N_166" type="standard_car" route="S_N" depart="350.0" departLane="random" departSpeed="10" />
<vehicle id="W_E_167" type="standard_car" route="W_E" depart="350.0" departLane="random" departSpeed="10" />
<vehicle id="S_N_168" type="standard_car" route="S_N" depart="352.0" departLane="random" departSpeed="10" />
<vehicle id="W_E_169" type="standard_car" route="W_E" depart="353.0" departLane="random" departSpeed="10" />
<vehicle id="S_N_170" type="standard_car" route="S_N" depart="353.0" departLane="random" departSpeed="10" />
<vehicle id="N_S_171" type="standard_car" route="N_S" depart="353.0" departLane="random" departSpeed="10" />
<vehicle id="E_W_172" type="standard_car" route="E_W" depart="356.0" departLane="random" departSpeed="10" />
<vehicle id="S_N_173" type="standard_car" route="S_N" depart="358.0" departLane="random" departSpeed="10" />
<vehicle id="S_N_174" type="standard_car" route="S_N" depart="366.0" departLane="random" departSpeed="10" />
<vehicle id="S_N_175" type="standard_car" route="S_N" depart="368.0" departLane="random" departSpeed="10" />
<vehicle id="E_W_176" type="standard_car" route="E_W" depart="380.0" departLane="random" departSpeed="10" />
<vehicle id="W_E_177" type="standard_car" route="W_E" depart="380.0" departLane="random" departSpeed="10" />
<vehicle id="S_N_178" type="standard_car" route="S_N" depart="385.0" departLane="random" departSpeed="10" />
<vehicle id="S_N_179" type="standard_car" route="S_N" depart="387.0" departLane="random" departSpeed="10" />
<vehicle id="S_N_180" type="standard_car" route="S_N" depart="394.0" departLane="random" departSpeed="10" />
<vehicle id="N_S_181" type="standard_car" route="N_S" depart="396.0" departLane="random" departSpeed="10" />
<vehicle id="S_N_182" type="standard_car" route="S_N" depart="399.0" departLane="random" departSpeed="10" />
<vehicle id="S_N_183" type="standard_car" route="S_N" depart="400.0" departLane="random" departSpeed="10" />
<vehicle id="E_W_184" type="standard_car" route="E_W" depart="401.0" departLane="random" departSpeed="10" />
<vehicle id="S_N_185" type="standard_car" route="S_N" depart="409.0" departLane="random" departSpeed="10" />
<vehicle id="S_N_186" type="standard_car" route="S_N" depart="412.0" departLane="random" departSpeed="10" />
<vehicle id="N_S_187" type="standard_car" route="N_S" depart="419.0" departLane="random" departSpeed="10" />
<vehicle id="E_W_188" type="standard_car" route="E_W" depart="419.0" departLane="random" departSpeed="10" />
<vehicle id="N_S_189" type="standard_car" route="N_S" depart="421.0" departLane="random" departSpeed="10" />
<vehicle id="W_E_190" type="standard_car" route="W_E" depart="422.0" departLane="random" departSpeed="10" />
<vehicle id="S_N_191" type="standard_car" route="S_N" depart="427.0" departLane="random" departSpeed="10" />
<vehicle id="S_N_192" type="standard_car" route="S_N" depart="428.0" departLane="random" departSpeed="10" />
<vehicle id="E_W_193" type="standard_car" route="E_W" depart="429.0" departLane="random" departSpeed="10" />
<vehicle id="W_E_194" type="standard_car" route="W_E" depart="437.0" departLane="random" departSpeed="10" />
<vehicle id="E_W_195" type="standard_car" route="E_W" depart="441.0" departLane="random" departSpeed="10" />
<vehicle id="E_W_196" type="standard_car" route="E_W" depart="445.0" departLane="random" departSpeed="10" />
<vehicle id="S_N_197" type="standard_car" route="S_N" depart="446.0" departLane="random" departSpeed="10" />
<vehicle id="N_S_198" type="standard_car" route="N_S" depart="448.0" departLane="random" departSpeed="10" />
<vehicle id="E_W_199" type="standard_car" route="E_W" depart="450.0" departLane="random" departSpeed="10" />
<vehicle id="W_E_200" type="standard_car" route="W_E" depart="450.0" departLane="random" departSpeed="10" />
<vehicle id="E_W_201" type="standard_car" route="E_W" depart="453.0" departLane="random" departSpeed="10" />
<vehicle id="N_S_202" type="standard_car" route="N_S" depart="454.0" departLane="random" departSpeed="10" />
<vehicle id="E_W_203" type="standard_car" route="E_W" depart="456.0" departLane="random" departSpeed="10" />
<vehicle id="N_S_204" type="standard_car" route="N_S" depart="463.0" departLane="random" departSpeed="10" />
<vehicle id="E_W_205" type="standard_car" route="E_W" depart="464.0" departLane="random" departSpeed="10" />
<vehicle id="S_N_206" type="standard_car" route="S_N" depart="466.0" departLane="random" departSpeed="10" />
<vehicle id="E_W_207" type="standard_car" route="E_W" depart="466.0" departLane="random" departSpeed="10" />
<vehicle id="E_W_208" type="standard_car" route="E_W" depart="467.0" departLane="random" departSpeed="10" />
<vehicle id="N_S_209" type="standard_car" route="N_S" depart="469.0" departLane="random" departSpeed="10" />
<vehicle id="E_W_210" type="standard_car" route="E_W" depart="474.0" departLane="random" departSpeed="10" />
<vehicle id="N_S_211" type="standard_car" route="N_S" depart="474.0" departLane="random" departSpeed="10" />
<vehicle id="E_W_212" type="standard_car" route="E_W" depart="486.0" departLane="random" departSpeed="10" />
<vehicle id="N_S_213" type="standard_car" route="N_S" depart="492.0" departLane="random" departSpeed="10" />
<vehicle id="S_N_214" type="standard_car" route="S_N" depart="495.0" departLane="random" departSpeed="10" />
<vehicle id="E_W_215" type="standard_car" route="E_W" depart="498.0" departLane="random" departSpeed="10" />
<vehicle id="S_N_216" type="standard_car" route="S_N" depart="498.0" departLane="random" departSpeed="10" />
<vehicle id="N_S_217" type="standard_car" route="N_S" depart="500.0" departLane="random" departSpeed="10" />
<vehicle id="N_S_218" type="standard_car" route="N_S" depart="502.0" departLane="random" departSpeed="10" />
<vehicle id="W_E_219" type="standard_car" route="W_E" depart="503.0" departLane="random" departSpeed="10" />
<vehicle id="E_W_220" type="standard_car" route="E_W" depart="509.0" departLane="random" departSpeed="10" />
<vehicle id="S_N_221" type="standard_car" route="S_N" depart="511.0" departLane="random" departSpeed="10" />
<vehicle id="N_S_222" type="standard_car" route="N_S" depart="513.0" departLane="random" departSpeed="10" />
<vehicle id="S_N_223" type="standard_car" route="S_N" depart="521.0" departLane="random" departSpeed="10" />
<vehicle id="N_S_224" type="standard_car" route="N_S" depart="522.0" departLane="random" departSpeed="10" />
<vehicle id="N_S_225" type="standard_car" route="N_S" depart="524.0" departLane="random" departSpeed="10" />
<vehicle id="S_N_226" type="standard_car" route="S_N" depart="535.0" departLane="random" departSpeed="10" />
<vehicle id="W_E_227" type="standard_car" route="W_E" depart="540.0" departLane="random" departSpeed="10" />
<vehicle id="N_S_228" type="standard_car" route="N_S" depart="542.0" departLane="random" departSpeed="10" />
<vehicle id="S_N_229" type="standard_car" route="S_N" depart="555.0" departLane="random" departSpeed="10" />
<vehicle id="N_S_230" type="standard_car" route="N_S" depart="555.0" departLane="random" departSpeed="10" />
<vehicle id="W_E_231" type="standard_car" route="W_E" depart="562.0" departLane="random" departSpeed="10" />
<vehicle id="S_N_232" type="standard_car" route="S_N" depart="564.0" departLane="random" departSpeed="10" />
<vehicle id="E_W_233" type="standard_car" route="E_W" depart="567.0" departLane="random" departSpeed="10" />
<vehicle id="S_N_234" type="standard_car" route="S_N" depart="577.0" departLane="random" departSpeed="10" />
<vehicle id="N_S_235" type="standard_car" route="N_S" depart="587.0" departLane="random" departSpeed="10" />
<vehicle id="S_N_236" type="standard_car" route="S_N" depart="592.0" departLane="random" departSpeed="10" />
<vehicle id="N_S_237" type="standard_car" route="N_S" depart="596.0" departLane="random" departSpeed="10" />
<vehicle id="S_N_238" type="standard_car" route="S_N" depart="598.0" departLane="random" departSpeed="10" />
<vehicle id="W_E_239" type="standard_car" route="W_E" depart="603.0" departLane="random" departSpeed="10" />
<vehicle id="S_N_240" type="standard_car" route="S_N" depart="604.0" departLane="random" departSpeed="10" />
<vehicle id="W_E_241" type="standard_car" route="W_E" depart="607.0" departLane="random" departSpeed="10" />
<vehicle id="E_W_242" type="standard_car" route="E_W" depart="610.0" departLane="random" departSpeed="10" />
<vehicle id="S_N_243" type="standard_car" route="S_N" depart="611.0" departLane="random" departSpeed="10" />
<vehicle id="W_E_244" type="standard_car" route="W_E" depart="615.0" departLane="random" departSpeed="10" />
<vehicle id="S_N_245" type="standard_car" route="S_N" depart="620.0" departLane="random" departSpeed="10" />
<vehicle id="S_N_246" type="standard_car" route="S_N" depart="623.0" departLane="random" departSpeed="10" />
<vehicle id="E_W_247" type="standard_car" route="E_W" depart="624.0" departLane="random" departSpeed="10" />
<vehicle id="E_W_248" type="standard_car" route="E_W" depart="625.0" departLane="random" departSpeed="10" />
<vehicle id="S_N_249" type="standard_car" route="S_N" depart="635.0" departLane="random" departSpeed="10" />
<vehicle id="N_S_250" type="standard_car" route="N_S" depart="636.0" departLane="random" departSpeed="10" />
<vehicle id="W_E_251" type="standard_car" route="W_E" depart="640.0" departLane="random" departSpeed="10" />
<vehicle id="S_N_252" type="standard_car" route="S_N" depart="644.0" departLane="random" departSpeed="10" />
<vehicle id="S_N_253" type="standard_car" route="S_N" depart="645.0" departLane="random" departSpeed="10" />
<vehicle id="N_S_254" type="standard_car" route="N_S" depart="645.0" departLane="random" departSpeed="10" />
<vehicle id="S_N_255" type="standard_car" route="S_N" depart="645.0" departLane="random" departSpeed="10" />
<vehicle id="E_W_256" type="standard_car" route="E_W" depart="649.0" departLane="random" departSpeed="10" />
<vehicle id="N_S_257" type="standard_car" route="N_S" depart="650.0" departLane="random" departSpeed="10" />
<vehicle id="E_W_258" type="standard_car" route="E_W" depart="654.0" departLane="random" departSpeed="10" />
<vehicle id="N_S_259" type="standard_car" route="N_S" depart="658.0" departLane="random" departSpeed="10" />
<vehicle id="W_E_260" type="standard_car" route="W_E" depart="659.0" departLane="random" departSpeed="10" />
<vehicle id="S_N_261" type="standard_car" route="S_N" depart="665.0" departLane="random" departSpeed="10" />
<vehicle id="E_W_262" type="standard_car" route="E_W" depart="667.0" departLane="random" departSpeed="10" />
<vehicle id="W_E_263" type="standard_car" route="W_E" depart="671.0" departLane="random" departSpeed="10" />
<vehicle id="W_E_264" type="standard_car" route="W_E" depart="677.0" departLane="random" departSpeed="10" />
<vehicle id="W_E_265" type="standard_car" route="W_E" depart="678.0" departLane="random" departSpeed="10" />
<vehicle id="S_N_266" type="standard_car" route="S_N" depart="681.0" departLane="random" departSpeed="10" />
<vehicle id="N_S_267" type="standard_car" route="N_S" depart="682.0" departLane="random" departSpeed="10" />
<vehicle id="S_N_268" type="standard_car" route="S_N" depart="684.0" departLane="random" departSpeed="10" />
<vehicle id="N_S_269" type="standard_car" route="N_S" depart="686.0" departLane="random" departSpeed="10" />