<routes>
            <vType accel="1.0" decel="4.5" id="standard_car" length="5.0" minGap="2.5" maxSpeed="30" sigma="0.5" />

            <route id="W_E" edges= "west_edge_one east_edge_two"/>
            <route id="W_S" edges= "west_edge_one south_edge_two"/>

            <route id="N_W" edges= "north_edge_one west_edge_two"/>
            <route id="N_S" edges= "north_edge_one south_edge_two"/>

            <route id="E_N" edges= "east_edge_one north_edge_two"/>
            <route id="E_W" edges= "east_edge_one  west_edge_two"/>

            <route id="S_E" edges= "south_edge_one  east_edge_two "/>
            <route id="S_N" edges= "south_edge_one north_edge_two"/> 
            
            
<vehicle id="W_E_0" type="standard_car" route="W_E" depart="3.0" departLane="random" departSpeed="10" />
<vehicle id="W_E_1" type="standard_car" route="W_E" depart="8.0" departLane="random" departSpeed="10" />
<vehicle id="N_S_2" type="standard_car" route="N_S" depart="8.0" departLane="random" departSpeed="10" />
<vehicle id="E_N_3" type="standard_car" route="E_N" depart="9.0" departLane="random" departSpeed="10" />
<vehicle id="N_W_4" type="standard_car" route="N_W" depart="10.0" departLane="random" departSpeed="10" />
<vehicle id="N_S_5" type="standard_car" route="N_S" depart="11.0" departLane="random" departSpeed="10" />
<vehicle id="N_S_6" type="standard_car" route="N_S" depart="12.0" departLane="random" departSpeed="10" />
<vehicle id="E_N_7" type="standard_car" route="E_N" depart="12.0" departLane="random" departSpeed="10" />
<vehicle id="E_W_8" type="standard_car" route="E_W" depart="13.0" departLane="random" departSpeed="10" />
<vehicle id="N_W_9" type="standard_car" route="N_W" depart="14.0" departLane="random" departSpeed="10" />
<vehicle id="N_S_10" type="standard_car" route="N_S" depart="14.0" departLane="random" departSpeed="10" />
<vehicle id="W_E_11" type="standard_car" route="W_E" depart="15.0" departLane="random" departSpeed="10" />
<vehicle id="E_W_12" type="standard_car" route="E_W" depart="15.0" departLane="random" departSpeed="10" />
<vehicle id="E_W_13" type="standard_car" route="E_W" depart="15.0" departLane="random" departSpeed="10" />
<vehicle id="N_S_14" type="standard_car" route="N_S" depart="18.0" departLane="random" departSpeed="10" />
<vehicle id="E_W_15" type="standard_car" route="E_W" depart="19.0" departLane="random" departSpeed="10" />
<vehicle id="N_S_16" type="standard_car" route="N_S" depart="23.0" departLane="random" departSpeed="10" />
<vehicle id="W_S_17" type="standard_car" route="W_S" depart="24.0" departLane="random" departSpeed="10" />
<vehicle id="W_E_18" type="standard_car" route="W_E" depart="24.0" departLane="random" departSpeed="10" />
<vehicle id="E_W_19" type="standard_car" route="E_W" depart="26.0" departLane="random" departSpeed="10" />
<vehicle id="N_S_20" type="standard_car" route="N_S" depart="29.0" departLane="random" departSpeed="10" />
<vehicle id="W_E_21" type="standard_car" route="W_E" depart="33.0" departLane="random" departSpeed="10" />
<vehicle id="N_S_22" type="standard_car" route="N_S" depart="34.0" departLane="random" departSpeed="10" />
<vehicle id="N_S_23" type="standard_car" route="N_S" depart="39.0" departLane="random" departSpeed="10" />
<vehicle id="N_W_24" type="standard_car" route="N_W" depart="40.0" departLane="random" departSpeed="10" />
<vehicle id="W_E_25" type="standard_car" route="W_E" depart="41.0" departLane="random" departSpeed="10" />
<vehicle id="N_S_26" type="standard_car" route="N_S" depart="42.0" departLane="random" departSpeed="10" />
<vehicle id="N_W_27" type="standard_car" route="N_W" depart="43.0" departLane="random" departSpeed="10" />
<vehicle id="E_W_28" type="standard_car" route="E_W" depart="43.0" departLane="random" departSpeed="10" />
<vehicle id="W_E_29" type="standard_car" route="W_E" depart="44.0" departLane="random" departSpeed="10" />
<vehicle id="N_S_30" type="standard_car" route="N_S" depart="46.0" departLane="random" departSpeed="10" />
<vehicle id="N_W_31" type="standard_car" route="N_W" depart="47.0" departLane="random" departSpeed="10" />
<vehicle id="N_S_32" type="standard_car" route="N_S" depart="47.0" departLane="random" departSpeed="10" />
<vehicle id="E_W_33" type="standard_car" route="E_W" depart="48.0" departLane="random" departSpeed="10" />
<vehicle id="W_E_34" type="standard_car" route="W_E" depart="50.0" departLane="random" departSpeed="10" />
<vehicle id="W_E_35" type="standard_car" route="W_E" depart="50.0" departLane="random" departSpeed="10" />
<vehicle id="W_S_36" type="standard_car" route="W_S" depart="51.0" departLane="random" departSpeed="10" />
<vehicle id="W_E_37" type="standard_car" route="W_E" depart="53.0" departLane="random" departSpeed="10" />
<vehicle id="W_E_38" type="standard_car" route="W_E" depart="53.0" departLane="random" departSpeed="10" />
<vehicle id="N_S_39" type="standard_car" route="N_S" depart="57.0" departLane="random" departSpeed="10" />
<vehicle id="E_W_40" type="standard_car" route="E_W" depart="59.0" departLane="random" departSpeed="10" />
<vehicle id="W_S_41" type="standard_car" route="W_S" depart="60.0" departLane="random" departSpeed="10" />
<vehicle id="W_E_42" type="standard_car" route="W_E" depart="62.0" departLane="random" departSpeed="10" />
<vehicle id="W_S_43" type="standard_car" route="W_S" depart="65.0" departLane="random" departSpeed="10" />
<vehicle id="W_E_44" type="standard_car" route="W_E" depart="67.0" departLane="random" departSpeed="10" />
<vehicle id="E_W_45" type="standard_car" route="E_W" depart="70.0" departLane="random" departSpeed="10" />
<vehicle id="N_S_46" type="standard_car" route="N_S" depart="72.0" departLane="random" departSpeed="10" />
<vehicle id="N_S_47" type="standard_car" route="N_S" depart="73.0" departLane="random" departSpeed="10" />
<vehicle id="W_E_48" type="standard_car" route="W_E" depart="74.0" departLane="random" departSpeed="10" />
<vehicle id="E_N_49" type="standard_car" route="E_N" depart="75.0" departLane="random" departSpeed="10" />
<vehicle id="N_S_50" type="standard_car" route="N_S" depart="75.0" departLane="random" departSpeed="10" />
<vehicle id="N_S_51" type="standard_car" route="N_S" depart="75.0" departLane="random" departSpeed="10" />
<vehicle id="N_S_52" type="standard_car" route="N_S" depart="77.0" departLane="random" departSpeed="10" />
<vehicle id="N_S_53" type="standard_car" route="N_S" depart="80.0" departLane="random" departSpeed="10" />
<vehicle id="N_S_54" type="standard_car" route="N_S" depart="84.0" departLane="random" departSpeed="10" />
<vehicle id="E_N_55" type="standard_car" route="E_N" depart="88.0" departLane="random" departSpeed="10" />
<vehicle id="E_W_56" type="standard_car" route="E_W" depart="89.0" departLane="random" departSpeed="10" />
<vehicle id="E_W_57" type="standard_car" route="E_W" depart="90.0" departLane="random" departSpeed="10" />
<vehicle id="E_W_58" type="standard_car" route="E_W" depart="90.0" departLane="random" departSpeed="10" />
<vehicle id="N_W_59" type="standard_car" route="N_W" depart="91.0" departLane="random" departSpeed="10" />
<vehicle id="W_E_60" type="standard_car" route="W_E" depart="94.0" departLane="random" departSpeed="10" />
<vehicle id="E_W_61" type="standard_car" route="E_W" depart="99.0" departLane="random" departSpeed="10" />
<vehicle id="E_W_62" type="standard_car" route="E_W" depart="99.0" departLane="random" departSpeed="10" />
<vehicle id="E_W_63" type="standard_car" route="E_W" depart="100.0" departLane="random" departSpeed="10" />
<vehicle id="W_E_64" type="standard_car" route="W_E" depart="101.0" departLane="random" departSpeed="10" />
<vehicle id="N_S_65" type="standard_car" route="N_S" depart="101.0" departLane="random" departSpeed="10" />
<vehicle id="W_E_66" type="standard_car" route="W_E" depart="101.0" departLane="random" departSpeed="10" />
<vehicle id="E_N_67" type="standard_car" route="E_N" depart="101.0" departLane="random" departSpeed="10" />
<vehicle id="N_S_68" type="standard_car" route="N_S" depart="102.0" departLane="random" departSpeed="10" />
<vehicle id="N_S_69" type="standard_car" route="N_S" depart="104.0" departLane="random" departSpeed="10" />
<vehicle id="W_S_70" type="standard_car" route="W_S" depart="105.0" departLane="random" departSpeed="10" />
<vehicle id="W_E_71" type="standard_car" route="W_E" depart="106.0" departLane="random" departSpeed="10" />
<vehicle id="N_S_72" type="standard_car" route="N_S" depart="111.0" departLane="random" departSpeed="10" />
<vehicle id="N_S_73" type="standard_car" route="N_S" depart="112.0" departLane="random" departSpeed="10" />
<vehicle id="N_S_74" type="standard_car" route="N_S" depart="114.0" departLane="random" departSpeed="10" />
<vehicle id="E_W_75" type="standard_car" route="E_W" depart="115.0" departLane="random" departSpeed="10" />
<vehicle id="W_E_76" type="standard_car" route="W_E" depart="116.0" departLane="random" departSpeed="10" />
<vehicle id="E_W_77" type="standard_car" route="E_W" depart="118.0" departLane="random" departSpeed="10" />
<vehicle id="E_N_78" type="standard_car" route="E_N" depart="124.0" departLane="random" departSpeed="10" />
<vehicle id="N_S_79" type="standard_car" route="N_S" depart="124.0" departLane="random" departSpeed="10" />
<vehicle id="E_W_80" type="standard_car" route="E_W" depart="125.0" departLane="random" departSpeed="10" />
<vehicle id="W_E_81" type="standard_car" route="W_E" depart="126.0" departLane="random" departSpeed="10" />
<vehicle id="N_S_82" type="standard_car" route="N_S" depart="127.0" departLane="random" departSpeed="10" />
<vehicle id="E_N_83" type="standard_car" route="E_N" depart="127.0" departLane="random" departSpeed="10" />
<vehicle id="E_W_84" type="standard_car" route="E_W" depart="129.0" departLane="random" departSpeed="10" />
<vehicle id="E_N_85" type="standard_car" route="E_N" depart="134.0" departLane="random" departSpeed="10" />
<vehicle id="E_N_86" type="standard_car" route="E_N" depart="135.0" departLane="random" departSpeed="10" />
<vehicle id="E_N_87" type="standard_car" route="E_N" depart="141.0" departLane="random" departSpeed="10" />
<vehicle id="E_N_88" type="standard_car" route="E_N" depart="143.0" departLane="random" departSpeed="10" />
<vehicle id="N_S_89" type="standard_car" route="N_S" depart="145.0" departLane="random" departSpeed="10" />
<vehicle id="N_S_90" type="standard_car" route="N_S" depart="145.0" departLane="random" departSpeed="10" />
<vehicle id="N_W_91" type="standard_car" route="N_W" depart="146.0" departLane="random" departSpeed="10" />
<vehicle id="E_W_92" type="standard_car" route="E_W" depart="147.0" departLane="random" departSpeed="10" />
<vehicle id="W_E_93" type="standard_car" route="W_E" depart="147.0" departLane="random" departSpeed="10" />
<vehicle id="W_E_94" type="standard_car" route="W_E" depart="148.0" departLane="random" departSpeed="10" />
<vehicle id="W_S_95" type="standard_car" route="W_S" depart="150.0" departLane="random" departSpeed="10" />
<vehicle id="N_S_96" type="standard_car" route="N_S" depart="156.0" departLane="random" departSpeed="10" />
<vehicle id="E_W_97" type="standard_car" route="E_W" depart="157.0" departLane="random" departSpeed="10" />
<vehicle id="W_E_98" type="standard_car" route="W_E" depart="159.0" departLane="random" departSpeed="10" />
<vehicle id="N_S_99" type="standard_car" route="N_S" depart="166.0" departLane="random" departSpeed="10" />
<vehicle id="E_W_100" type="standard_car" route="E_W" depart="167.0" departLane="random" departSpeed="10" />
<vehicle id="N_S_101" type="standard_car" route="N_S" depart="168.0" departLane="random" departSpeed="10" />
<vehicle id="E_W_102" type="standard_car" route="E_W" depart="169.0" departLane="random" departSpeed="10" />
<vehicle id="N_W_103" type="standard_car" route="N_W" depart="171.0" departLane="random" departSpeed="10" />
<vehicle id="W_E_104" type="standard_car" route="W_E" depart="173.0" departLane="random" departSpeed="10" />
<vehicle id="N_S_105" type="standard_car" route="N_S" depart="175.0" departLane="random" departSpeed="10" />
<vehicle id="W_E_106" type="standard_car" route="W_E" depart="179.0" departLane="random" departSpeed="10" />
<vehicle id="N_W_107" type="standard_car" route="N_W" depart="180.0" departLane="random" departSpeed="10" />
<vehicle id="N_W_108" type="standard_car" route="N_W" depart="181.0" departLane="random" departSpeed="10" />
<vehicle id="W_E_109" type="standard_car" route="W_E" depart="181.0" departLane="random" departSpeed="10" />
<vehicle id="W_E_110" type="standard_car" route="W_E" depart="184.0" departLane="random" departSpeed="10" />
<vehicle id="N_S_111" type="standard_car" route="N_S" depart="188.0" departLane="random" departSpeed="10" />
<vehicle id="N_W_112" type="standard_car" route="N_W" depart="189.0" departLane="random" departSpeed="10" />
<vehicle id="E_W_113" type="standard_car" route="E_W" depart="189.0" departLane="random" departSpeed="10" />
<vehicle id="E_N_114" type="standard_car" route="E_N" depart="189.0" departLane="random" departSpeed="10" />
<vehicle id="N_S_115" type="standard_car" route="N_S" depart="190.0" departLane="random" departSpeed="10" />
<vehicle id="N_S_116" type="standard_car" route="N_S" depart="194.0" departLane="random" departSpeed="10" />
<vehicle id="E_W_117" type="standard_car" route="E_W" depart="194.0" departLane="random" departSpeed="10" />
<vehicle id="N_W_118" type="standard_car" route="N_W" depart="194.0" departLane="random" departSpeed="10" />
<vehicle id="W_E_119" type="standard_car" route="W_E" depart="196.0" departLane="random" departSpeed="10" />
<vehicle id="W_E_120" type="standard_car" route="W_E" depart="197.0" departLane="random" departSpeed="10" />
<vehicle id="N_S_121" type="standard_car" route="N_S" depart="197.0" departLane="random" departSpeed="10" />
<vehicle id="N_S_122" type="standard_car" route="N_S" depart="200.0" departLane="random" departSpeed="10" />
<vehicle id="N_S_123" type="standard_car" route="N_S" depart="201.0" departLane="random" departSpeed="10" />
<vehicle id="E_W_124" type="standard_car" route="E_W" depart="202.0" departLane="random" departSpeed="10" />
<vehicle id="N_S_125" type="standard_car" route="N_S" depart="204.0" departLane="random" departSpeed="10" />
<vehicle id="W_E_126" type="standard_car" route="W_E" depart="204.0" departLane="random" departSpeed="10" />
<vehicle id="E_W_127" type="standard_car" route="E_W" depart="205.0" departLane="random" departSpeed="10" />
<vehicle id="W_S_128" type="standard_car" route="W_S" depart="207.0" departLane="random" departSpeed="10" />
<vehicle id="W_E_129" type="standard_car" route="W_E" depart="209.0" departLane="random" departSpeed="10" />
<vehicle id="N_S_130" type="standard_car" route="N_S" depart="209.0" departLane="random" departSpeed="10" />
<vehicle id="E_W_131" type="standard_car" route="E_W" depart="209.0" departLane="random" departSpeed="10" />
<vehicle id="N_S_132" type="standard_car" route="N_S" depart="210.0" departLane="random" departSpeed="10" />
<vehicle id="W_E_133" type="standard_car" route="W_E" depart="214.0" departLane="random" departSpeed="10" />
<vehicle id="N_S_134" type="standard_car" route="N_S" depart="215.0" departLane="random" departSpeed="10" />
<vehicle id="W_E_135" type="standard_car" route="W_E" depart="217.0" departLane="random" departSpeed="10" />
<vehicle id="E_N_136" type="standard_car" route="E_N" depart="218.0" departLane="random" departSpeed="10" />
<vehicle id="N_W_137" type="standard_car" route="N_W" depart="219.0" departLane="random" departSpeed="10" />
<vehicle id="E_W_138" type="standard_car" route="E_W" depart="220.0" departLane="random" departSpeed="10" />
<vehicle id="E_W_139" type="standard_car" route="E_W" depart="225.0" departLane="random" departSpeed="10" />
<vehicle id="W_E_140" type="standard_car" route="W_E" depart="225.0" departLane="random" departSpeed="10" />
<vehicle id="N_S_141" type="standard_car" route="N_S" depart="226.0" departLane="random" departSpeed="10" />
<vehicle id="W_E_142" type="standard_car" route="W_E" depart="227.0" departLane="random" departSpeed="10" />
<vehicle id="N_S_143" type="standard_car" route="N_S" depart="228.0" departLane="random" departSpeed="10" />
<vehicle id="E_W_144" type="standard_car" route="E_W" depart="228.0" departLane="random" departSpeed="10" />
<vehicle id="N_S_145" type="standard_car" route="N_S" depart="230.0" departLane="random" departSpeed="10" />
<vehicle id="W_E_146" type="standard_car" route="W_E" depart="232.0" departLane="random" departSpeed="10" />
<vehicle id="N_S_147" type="standard_car" route="N_S" depart="232.0" departLane="random" departSpeed="10" />
<vehicle id="W_S_148" type="standard_car" route="W_S" depart="236.0" departLane="random" departSpeed="10" />
<vehicle id="W_E_149" type="standard_car" route="W_E" depart="237.0" departLane="random" departSpeed="10" />
<vehicle id="N_S_150" type="standard_car" route="N_S" depart="238.0" departLane="random" departSpeed="10" />
<vehicle id="N_S_151" type="standard_car" route="N_S" depart="242.0" departLane="random" departSpeed="10" />
<vehicle id="W_E_152" type="standard_car" route="W_E" depart="243.0" departLane="random" departSpeed="10" />
<vehicle id="W_S_153" type="standard_car" route="W_S" depart="244.0" departLane="random" departSpeed="10" />
<vehicle id="W_E_154" type="standard_car" route="W_E" depart="245.0" departLane="random" departSpeed="10" />
<vehicle id="N_S_155" type="standard_car" route="N_S" depart="247.0" departLane="random" departSpeed="10" />
<vehicle id="W_E_156" type="standard_car" route="W_E" depart="247.0" departLane="random" departSpeed="10" />
<vehicle id="W_E_157" type="standard_car" route="W_E" depart="248.0" departLane="random" departSpeed="10" />
<vehicle id="W_E_158" type="standard_car" route="W_E" depart="251.0" departLane="random" departSpeed="10" />
<vehicle id="N_W_159" type="standard_car" route="N_W" depart="251.0" departLane="random" departSpeed="10" />
<vehicle id="N_S_160" type="standard_car" route="N_S" depart="252.0" departLane="random" departSpeed="10" />
<vehicle id="W_E_161" type="standard_car" route="W_E" depart="253.0" departLane="random" departSpeed="10" />
<vehicle id="E_W_162" type="standard_car" route="E_W" depart="256.0" departLane="random" departSpeed="10" />
<vehicle id="W_E_163" type="standard_car" route="W_E" depart="256.0" departLane="random" departSpeed="10" />
<vehicle id="W_E_164" type="standard_car" route="W_E" depart="259.0" departLane="random" departSpeed="10" />
<vehicle id="N_W_165" type="standard_car" route="N_W" depart="262.0" departLane="random" departSpeed="10" />
<vehicle id="W_E_166" type="standard_car" route="W_E" depart="267.0" departLane="random" departSpeed="10" />
<vehicle id="N_S_167" type="standard_car" route="N_S" depart="267.0" departLane="random" departSpeed="10" />
<vehicle id="E_N_168" type="standard_car" route="E_N" depart="271.0" departLane="random" departSpeed="10" />
<vehicle id="E_N_169" type="standard_car" route="E_N" depart="273.0" departLane="random" departSpeed="10" />
<vehicle id="N_W_170" type="standard_car" route="N_W" depart="274.0" departLane="random" departSpeed="10" />
<vehicle id="W_S_171" type="standard_car" route="W_S" depart="275.0" departLane="random" departSpeed="10" />
<vehicle id="N_W_172" type="standard_car" route="N_W" depart="283.0" departLane="random" departSpeed="10" />
<vehicle id="W_E_173" type="standard_car" route="W_E" depart="284.0" departLane="random" departSpeed="10" />
<vehicle id="W_E_174" type="standard_car" route="W_E" depart="289.0" departLane="random" departSpeed="10" />
<vehicle id="E_W_175" type="standard_car" route="E_W" depart="295.0" departLane="random" departSpeed="10" />
<vehicle id="E_W_176" type="standard_car" route="E_W" depart="303.0" departLane="random" departSpeed="10" />
<vehicle id="E_N_177" type="standard_car" route="E_N" depart="305.0" departLane="random" departSpeed="10" />
<vehicle id="N_W_178" type="standard_car" route="N_W" depart="306.0" departLane="random" departSpeed="10" />
<vehicle id="W_S_179" type="standard_car" route="W_S" depart="314.0" departLane="random" departSpeed="10" />
<vehicle id="W_E_180" type="standard_car" route="W_E" depart="314.0" departLane="random" departSpeed="10" />
<vehicle id="W_E_181" type="standard_car" route="W_E" depart="315.0" departLane="random" departSpeed="10" />
<vehicle id="E_N_182" type="standard_car" route="E_N" depart="318.0" departLane="random" departSpeed="10" />
<vehicle id="W_E_183" type="standard_car" route="W_E" depart="319.0" departLane="random" departSpeed="10" />
<vehicle id="E_W_184" type="standard_car" route="E_W" depart="319.0" departLane="random" departSpeed="10" />
<vehicle id="N_W_185" type="standard_car" route="N_W" depart="323.0" departLane="random" departSpeed="10" />
<vehicle id="W_E_186" type="standard_car" route="W_E" depart="327.0" departLane="random" departSpeed="10" />
<vehicle id="E_W_187" type="standard_car" route="E_W" depart="328.0" departLane="random" departSpeed="10" />
<vehicle id="N_S_188" type="standard_car" route="N_S" depart="329.0" departLane="random" departSpeed="10" />
<vehicle id="N_S_189" type="standard_car" route="N_S" depart="331.0" departLane="random" departSpeed="10" />
<vehicle id="N_S_190" type="standard_car" route="N_S" depart="334.0" departLane="random" departSpeed="10" />
<vehicle id="W_E_191" type="standard_car" route="W_E" depart="335.0" departLane="random" departSpeed="10" />
<vehicle id="W_E_192" type="standard_car" route="W_E" depart="335.0" departLane="random" departSpeed="10" />
<vehicle id="N_S_193" type="standard_car" route="N_S" depart="339.0" departLane="random" departSpeed="10" />
<vehicle id="E_W_194" type="standard_car" route="E_W" depart="340.0" departLane="random" departSpeed="10" />
<vehicle id="W_E_195" type="standard_car" route="W_E" depart="341.0" departLane="random" departSpeed="10" />
<vehicle id="W_E_196" type="standard_car" route="W_E" depart="345.0" departLane="random" departSpeed="10" />
<vehicle id="W_S_197" type="standard_car" route="W_S" depart="345.0" departLane="random" departSpeed="10" />
<vehicle id="E_W_198" type="standard_car" route="E_W" depart="345.0" departLane="random" departSpeed="10" />
<vehicle id="W_E_199" type="standard_car" route="W_E" depart="356.0" departLane="random" departSpeed="10" />
<vehicle id="N_W_200" type="standard_car" route="N_W" depart="360.0" departLane="random" departSpeed="10" />
<vehicle id="N_W_201" type="standard_car" route="N_W" depart="361.0" departLane="random" departSpeed="10" />
<vehicle id="W_E_202" type="standard_car" route="W_E" depart="363.0" departLane="random" departSpeed="10" />
<vehicle id="E_W_203" type="standard_car" route="E_W" depart="363.0" departLane="random" departSpeed="10" />
<vehicle id="W_S_204" type="standard_car" route="W_S" depart="364.0" departLane="random" departSpeed="10" />
<vehicle id="W_E_205" type="standard_car" route="W_E" depart="366.0" departLane="random" departSpeed="10" />
<vehicle id="N_W_206" type="standard_car" route="N_W" depart="367.0" departLane="random" departSpeed="10" />
<vehicle id="E_N_207" type="standard_car" route="E_N" depart="373.0" departLane="random" departSpeed="10" />
<vehicle id="W_E_208" type="standard_car" route="W_E" depart="373.0" departLane="random" departSpeed="10" />
<vehicle id="N_W_209" type="standard_car" route="N_W" depart="374.0" departLane="random" departSpeed="10" />
<vehicle id="W_E_210" type="standard_car" route="W_E" depart="376.0" departLane="random" departSpeed="10" />
<vehicle id="N_S_211" type="standard_car" route="N_S" depart="382.0" departLane="random" departSpeed="10" />
<vehicle id="W_S_212" type="standard_car" route="W_S" depart="383.0" departLane="random" departSpeed="10" />
<vehicle id="W_E_213" type="standard_car" route="W_E" depart="383.0" departLane="random" departSpeed="10" />
<vehicle id="N_S_214" type="standard_car" route="N_S" depart="386.0" departLane="random" departSpeed="10" />
<vehicle id="E_N_215" type="standard_car" route="E_N" depart="390.0" departLane="random" departSpeed="10" />
<vehicle id="W_E_216" type="standard_car" route="W_E" depart="394.0" departLane="random" departSpeed="10" />
<vehicle id="E_W_217" type="standard_car" route="E_W" depart="394.0" departLane="random" departSpeed="10" />
<vehicle id="E_W_218" type="standard_car" route="E_W" depart="394.0" departLane="random" departSpeed="10" />
<vehicle id="N_S_219" type="standard_car" route="N_S" depart="394.0" departLane="random" departSpeed="10" />
<vehicle id="W_E_220" type="standard_car" route="W_E" depart="395.0" departLane="random" departSpeed="10" />
<vehicle id="E_N_221" type="standard_car" route="E_N" depart="400.0" departLane="random" departSpeed="10" />
<vehicle id="E_W_222" type="standard_car" route="E_W" depart="400.0" departLane="random" departSpeed="10" />
<vehicle id="E_N_223" type="standard_car" route="E_N" depart="402.0" departLane="random" departSpeed="10" />
<vehicle id="W_S_224" type="standard_car" route="W_S" depart="403.0" departLane="random" departSpeed="10" />
<vehicle id="N_S_225" type="standard_car" route="N_S" depart="407.0" departLane="random" departSpeed="10" />
<vehicle id="E_W_226" type="standard_car" route="E_W" depart="409.0" departLane="random" departSpeed="10" />
<vehicle id="N_S_227" type="standard_car" route="N_S" depart="410.0" departLane="random" departSpeed="10" />
<vehicle id="E_N_228" type="standard_car" route="E_N" depart="411.0" departLane="random" departSpeed="10" />
<vehicle id="E_W_229" type="standard_car" route="E_W" depart="412.0" departLane="random" departSpeed="10" />
<vehicle id="E_N_230" type="standard_car" route="E_N" depart="423.0" departLane="random" departSpeed="10" />
<vehicle id="E_W_231" type="standard_car" route="E_W" depart="426.0" departLane="random" departSpeed="10" />
<vehicle id="W_E_232" type="standard_car" route="W_E" depart="429.0" departLane="random" departSpeed="10" />
<vehicle id="W_E_233" type="standard_car" route="W_E" depart="432.0" departLane="random" departSpeed="10" />
<vehicle id="N_S_234" type="standard_car" route="N_S" depart="432.0" departLane="random" departSpeed="10" />
<vehicle id="N_W_235" type="standard_car" route="N_W" depart="432.0" departLane="random" departSpeed="10" />
<vehicle id="E_W_236" type="standard_car" route="E_W" depart="434.0" departLane="random" departSpeed="10" />
<vehicle id="E_W_237" type="standard_car" route="E_W" depart="435.0" departLane="random" departSpeed="10" />
<vehicle id="N_S_238" type="standard_car" route="N_S" depart="435.0" departLane="random" departSpeed="10" />
<vehicle id="W_E_239" type="standard_car" route="W_E" depart="436.0" departLane="random" departSpeed="10" />
<vehicle id="N_S_240" type="standard_car" route="N_S" depart="436.0" departLane="random" departSpeed="10" />
<vehicle id="W_S_241" type="standard_car" route="W_S" depart="438.0" departLane="random" departSpeed="10" />
<vehicle id="W_E_242" type="standard_car" route="W_E" depart="438.0" departLane="random" departSpeed="10" />
<vehicle id="W_E_243" type="standard_car" route="W_E" depart="440.0" departLane="random" departSpeed="10" />
<vehicle id="E_W_244" type="standard_car" route="E_W" depart="442.0" departLane="random" departSpeed="10" />
<vehicle id="E_N_245" type="standard_car" route="E_N" depart="445.0" departLane="random" departSpeed="10" />
<vehicle id="E_N_246" type="standard_car" route="E_N" depart="449.0" departLane="random" departSpeed="10" />
<vehicle id="W_E_247" type="standard_car" route="W_E" depart="452.0" departLane="random" departSpeed="10" />
<vehicle id="E_W_248" type="standard_car" route="E_W" depart="465.0" departLane="random" departSpeed="10" />
<vehicle id="W_S_249" type="standard_car" route="W_S" depart="475.0" departLane="random" departSpeed="10" />
<vehicle id="N_S_250" type="standard_car" route="N_S" depart="478.0" departLane="random" departSpeed="10" />
<vehicle id="W_S_251" type="standard_car" route="W_S" depart="481.0" departLane="random" departSpeed="10" />
<vehicle id="N_S_252" type="standard_car" route="N_S" depart="482.0" departLane="random" departSpeed="10" />
<vehicle id="W_S_253" type="standard_car" route="W_S" depart="491.0" departLane="random" departSpeed="10" />
<vehicle id="W_S_254" type="standard_car" route="W_S" depart="497.0" departLane="random" departSpeed="10" />
<vehicle id="W_E_255" type="standard_car" route="W_E" depart="499.0" departLane="random" departSpeed="10" />
<vehicle id="W_E_256" type="standard_car" route="W_E" depart="504.0" departLane="random" departSpeed="10" />
<vehicle id="W_S_257" type="standard_car" route="W_S" depart="510.0" departLane="random" departSpeed="10" />
<vehicle id="W_E_258" type="standard_car" route="W_E" depart="511.0" departLane="random" departSpeed="10" />
<vehicle id="W_S_259" type="standard_car" route="W_S" depart="520.0" departLane="random" departSpeed="10" />
<vehicle id="N_S_260" type="standard_car" route="N_S" depart="520.0" departLane="random" departSpeed="10" />
<vehicle id="E_N_261" type="standard_car" route="E_N" depart="522.0" departLane="random" departSpeed="10" />
<vehicle id="E_W_262" type="standard_car" route="E_W" depart="523.0" departLane="random" departSpeed="10" />
<vehicle id="N_S_263" type="standard_car" route="N_S" depart="526.0" departLane="random" departSpeed="10" />
<vehicle id="N_W_264" type="standard_car" route="N_W" depart="527.0" departLane="random" departSpeed="10" />
<vehicle id="W_E_265" type="standard_car" route="W_E" depart="529.0" departLane="random" departSpeed="10" />
<vehicle id="W_E_266" type="standard_car" route="W_E" depart="538.0" departLane="random" departSpeed="10" />
<vehicle id="W_E_267" type="standard_car" route="W_E" depart="548.0" departLane="random" departSpeed="10" />
<vehicle id="N_S_268" type="standard_car" route="N_S" depart="549.0" departLane="random" departSpeed="10" />
<vehicle id="E_W_269" type="standard_car" route="E_W" depart="549.0" departLane="random" departSpeed="10" />