<routes>
            <vType accel="1.0" decel="4.5" id="standard_car" length="5.0" minGap="2.5" maxSpeed="25" sigma="0.5" />
            <route id="W_E" edges= "west_edge_one east_edge_two"/>
            <route id="N_S" edges= "north_edge_one south_edge_two"/>
            <route id="E_W" edges= "east_edge_one  west_edge_two"/>
            <route id="S_N" edges= "south_edge_one north_edge_two"/> 

            
<vehicle id="W_E_0" type="standard_car" route="W_E" depart="0.0" departLane="random" departSpeed="10" />
<vehicle id="E_W_1" type="standard_car" route="E_W" depart="5.0" departLane="random" departSpeed="10" />
<vehicle id="S_N_2" type="standard_car" route="S_N" depart="7.0" departLane="random" departSpeed="10" />
<vehicle id="N_S_3" type="standard_car" route="N_S" depart="16.0" departLane="random" departSpeed="10" />
<vehicle id="N_S_4" type="standard_car" route="N_S" depart="17.0" departLane="random" departSpeed="10" />
<vehicle id="E_W_5" type="standard_car" route="E_W" depart="26.0" departLane="random" departSpeed="10" />
<vehicle id="N_S_6" type="standard_car" route="N_S" depart="28.0" departLane="random" departSpeed="10" />
<vehicle id="S_N_7" type="standard_car" route="S_N" depart="33.0" departLane="random" departSpeed="10" />
<vehicle id="W_E_8" type="standard_car" route="W_E" depart="36.0" departLane="random" departSpeed="10" />
<vehicle id="S_N_9" type="standard_car" route="S_N" depart="39.0" departLane="random" departSpeed="10" />
<vehicle id="S_N_10" type="standard_car" route="S_N" depart="40.0" departLane="random" departSpeed="10" />
<vehicle id="S_N_11" type="standard_car" route="S_N" depart="63.0" departLane="random" departSpeed="10" />
<vehicle id="E_W_12" type="standard_car" route="E_W" depart="66.0" departLane="random" departSpeed="10" />
<vehicle id="S_N_13" type="standard_car" route="S_N" depart="74.0" departLane="random" departSpeed="10" />
<vehicle id="W_E_14" type="standard_car" route="W_E" depart="88.0" departLane="random" departSpeed="10" />
<vehicle id="E_W_15" type="standard_car" route="E_W" depart="94.0" departLane="random" departSpeed="10" />
<vehicle id="S_N_16" type="standard_car" route="S_N" depart="95.0" departLane="random" departSpeed="10" />
<vehicle id="E_W_17" type="standard_car" route="E_W" depart="95.0" departLane="random" departSpeed="10" />
<vehicle id="E_W_18" type="standard_car" route="E_W" depart="135.0" departLane="random" departSpeed="10" />
<vehicle id="W_E_19" type="standard_car" route="W_E" depart="143.0" departLane="random" departSpeed="10" />
<vehicle id="W_E_20" type="standard_car" route="W_E" depart="194.0" departLane="random" departSpeed="10" />
<vehicle id="N_S_21" type="standard_car" route="N_S" depart="202.0" departLane="random" departSpeed="10" />
<vehicle id="E_W_22" type="standard_car" route="E_W" depart="206.0" departLane="random" departSpeed="10" />
<vehicle id="E_W_23" type="standard_car" route="E_W" depart="223.0" departLane="random" departSpeed="10" />
<vehicle id="N_S_24" type="standard_car" route="N_S" depart="282.0" departLane="random" departSpeed="10" />
<vehicle id="W_E_25" type="standard_car" route="W_E" depart="366.0" departLane="random" departSpeed="10" />
<vehicle id="N_S_26" type="standard_car" route="N_S" depart="368.0" departLane="random" departSpeed="10" />
<vehicle id="W_E_27" type="standard_car" route="W_E" depart="368.0" departLane="random" departSpeed="10" />
<vehicle id="N_S_28" type="standard_car" route="N_S" depart="394.0" departLane="random" departSpeed="10" />
<vehicle id="N_S_29" type="standard_car" route="N_S" depart="604.0" departLane="random" departSpeed="10" />
</routes>
