<routes>
            <vType accel="1.0" decel="4.5" id="standard_car" length="5.0" minGap="2.5" maxSpeed="25" sigma="0.5" />

            <route id="W_E" edges= "west_edge_one east_edge_two"/>

            <route id="N_S" edges= "north_edge_one south_edge_two"/>

            <route id="E_W" edges= "east_edge_one  west_edge_two"/>

            <route id="S_N" edges= "south_edge_one north_edge_two"/> 
<vehicle id="N_S_0" type="standard_car" route="N_S" depart="0" departLane="random" departSpeed="10" />
<vehicle id="S_N_1" type="standard_car" route="S_N" depart="0" departLane="random" departSpeed="10" />
<vehicle id="N_S_2" type="standard_car" route="N_S" depart="0" departLane="random" departSpeed="10" />
<vehicle id="N_S_3" type="standard_car" route="N_S" depart="0" departLane="random" departSpeed="10" />
<vehicle id="E_W_4" type="standard_car" route="E_W" depart="0" departLane="random" departSpeed="10" />
<vehicle id="N_S_5" type="standard_car" route="N_S" depart="0" departLane="random" departSpeed="10" />
<vehicle id="E_W_6" type="standard_car" route="E_W" depart="0" departLane="random" departSpeed="10" />
<vehicle id="S_N_7" type="standard_car" route="S_N" depart="0" departLane="random" departSpeed="10" />
<vehicle id="S_N_8" type="standard_car" route="S_N" depart="0" departLane="random" departSpeed="10" />
<vehicle id="E_W_9" type="standard_car" route="E_W" depart="0" departLane="random" departSpeed="10" />
<vehicle id="S_N_10" type="standard_car" route="S_N" depart="0" departLane="random" departSpeed="10" />
<vehicle id="N_S_11" type="standard_car" route="N_S" depart="0" departLane="random" departSpeed="10" />
<vehicle id="N_S_12" type="standard_car" route="N_S" depart="0" departLane="random" departSpeed="10" />
<vehicle id="S_N_13" type="standard_car" route="S_N" depart="0" departLane="random" departSpeed="10" />
<vehicle id="W_E_14" type="standard_car" route="W_E" depart="0" departLane="random" departSpeed="10" />
<vehicle id="W_E_15" type="standard_car" route="W_E" depart="0" departLane="random" departSpeed="10" />
<vehicle id="W_E_16" type="standard_car" route="W_E" depart="0" departLane="random" departSpeed="10" />
<vehicle id="S_N_17" type="standard_car" route="S_N" depart="0" departLane="random" departSpeed="10" />
<vehicle id="S_N_18" type="standard_car" route="S_N" depart="0" departLane="random" departSpeed="10" />
<vehicle id="S_N_19" type="standard_car" route="S_N" depart="0" departLane="random" departSpeed="10" />
<vehicle id="S_N_20" type="standard_car" route="S_N" depart="0" departLane="random" departSpeed="10" />
<vehicle id="S_N_21" type="standard_car" route="S_N" depart="0" departLane="random" departSpeed="10" />
<vehicle id="N_S_22" type="standard_car" route="N_S" depart="0" departLane="random" departSpeed="10" />
<vehicle id="S_N_23" type="standard_car" route="S_N" depart="0" departLane="random" departSpeed="10" />
<vehicle id="W_E_24" type="standard_car" route="W_E" depart="0" departLane="random" departSpeed="10" />
<vehicle id="N_S_25" type="standard_car" route="N_S" depart="0" departLane="random" departSpeed="10" />
<vehicle id="W_E_26" type="standard_car" route="W_E" depart="0" departLane="random" departSpeed="10" />
<vehicle id="S_N_27" type="standard_car" route="S_N" depart="0" departLane="random" departSpeed="10" />
<vehicle id="N_S_28" type="standard_car" route="N_S" depart="0" departLane="random" departSpeed="10" />
<vehicle id="E_W_29" type="standard_car" route="E_W" depart="0" departLane="random" departSpeed="10" />
<vehicle id="E_W_30" type="standard_car" route="E_W" depart="0" departLane="random" departSpeed="10" />
<vehicle id="S_N_31" type="standard_car" route="S_N" depart="0" departLane="random" departSpeed="10" />
<vehicle id="N_S_32" type="standard_car" route="N_S" depart="0" departLane="random" departSpeed="10" />
<vehicle id="N_S_33" type="standard_car" route="N_S" depart="0" departLane="random" departSpeed="10" />
<vehicle id="W_E_34" type="standard_car" route="W_E" depart="0" departLane="random" departSpeed="10" />
<vehicle id="N_S_35" type="standard_car" route="N_S" depart="0" departLane="random" departSpeed="10" />
<vehicle id="N_S_36" type="standard_car" route="N_S" depart="0" departLane="random" departSpeed="10" />
<vehicle id="N_S_37" type="standard_car" route="N_S" depart="0" departLane="random" departSpeed="10" />
<vehicle id="S_N_38" type="standard_car" route="S_N" depart="0" departLane="random" departSpeed="10" />
<vehicle id="N_S_39" type="standard_car" route="N_S" depart="0" departLane="random" departSpeed="10" />
<vehicle id="E_W_40" type="standard_car" route="E_W" depart="0" departLane="random" departSpeed="10" />
<vehicle id="E_W_41" type="standard_car" route="E_W" depart="0" departLane="random" departSpeed="10" />
<vehicle id="N_S_42" type="standard_car" route="N_S" depart="0" departLane="random" departSpeed="10" />
<vehicle id="W_E_43" type="standard_car" route="W_E" depart="0" departLane="random" departSpeed="10" />
<vehicle id="N_S_44" type="standard_car" route="N_S" depart="0" departLane="random" departSpeed="10" />
<vehicle id="N_S_45" type="standard_car" route="N_S" depart="0" departLane="random" departSpeed="10" />
<vehicle id="E_W_46" type="standard_car" route="E_W" depart="0" departLane="random" departSpeed="10" />
<vehicle id="W_E_47" type="standard_car" route="W_E" depart="0" departLane="random" departSpeed="10" />
<vehicle id="E_W_48" type="standard_car" route="E_W" depart="0" departLane="random" departSpeed="10" />
<vehicle id="E_W_49" type="standard_car" route="E_W" depart="0" departLane="random" departSpeed="10" />
<vehicle id="N_S_50" type="standard_car" route="N_S" depart="0" departLane="random" departSpeed="10" />
<vehicle id="E_W_51" type="standard_car" route="E_W" depart="0" departLane="random" departSpeed="10" />
<vehicle id="S_N_52" type="standard_car" route="S_N" depart="0" departLane="random" departSpeed="10" />
<vehicle id="W_E_53" type="standard_car" route="W_E" depart="0" departLane="random" departSpeed="10" />
<vehicle id="E_W_54" type="standard_car" route="E_W" depart="0" departLane="random" departSpeed="10" />
<vehicle id="W_E_55" type="standard_car" route="W_E" depart="0" departLane="random" departSpeed="10" />
<vehicle id="N_S_56" type="standard_car" route="N_S" depart="0" departLane="random" departSpeed="10" />
<vehicle id="E_W_57" type="standard_car" route="E_W" depart="0" departLane="random" departSpeed="10" />
<vehicle id="N_S_58" type="standard_car" route="N_S" depart="0" departLane="random" departSpeed="10" />
<vehicle id="E_W_59" type="standard_car" route="E_W" depart="0" departLane="random" departSpeed="10" />
<vehicle id="W_E_60" type="standard_car" route="W_E" depart="0" departLane="random" departSpeed="10" />
<vehicle id="W_E_61" type="standard_car" route="W_E" depart="0" departLane="random" departSpeed="10" />
<vehicle id="N_S_62" type="standard_car" route="N_S" depart="0" departLane="random" departSpeed="10" />
<vehicle id="W_E_63" type="standard_car" route="W_E" depart="0" departLane="random" departSpeed="10" />
<vehicle id="W_E_64" type="standard_car" route="W_E" depart="0" departLane="random" departSpeed="10" />
<vehicle id="E_W_65" type="standard_car" route="E_W" depart="0" departLane="random" departSpeed="10" />
<vehicle id="S_N_66" type="standard_car" route="S_N" depart="0" departLane="random" departSpeed="10" />
<vehicle id="W_E_67" type="standard_car" route="W_E" depart="0" departLane="random" departSpeed="10" />
<vehicle id="S_N_68" type="standard_car" route="S_N" depart="0" departLane="random" departSpeed="10" />
<vehicle id="W_E_69" type="standard_car" route="W_E" depart="0" departLane="random" departSpeed="10" />
<vehicle id="S_N_70" type="standard_car" route="S_N" depart="0" departLane="random" departSpeed="10" />
<vehicle id="N_S_71" type="standard_car" route="N_S" depart="0" departLane="random" departSpeed="10" />
<vehicle id="S_N_72" type="standard_car" route="S_N" depart="0" departLane="random" departSpeed="10" />
<vehicle id="N_S_73" type="standard_car" route="N_S" depart="0" departLane="random" departSpeed="10" />
<vehicle id="S_N_74" type="standard_car" route="S_N" depart="0" departLane="random" departSpeed="10" />
<vehicle id="W_E_75" type="standard_car" route="W_E" depart="0" departLane="random" departSpeed="10" />
<vehicle id="E_W_76" type="standard_car" route="E_W" depart="0" departLane="random" departSpeed="10" />
<vehicle id="W_E_77" type="standard_car" route="W_E" depart="0" departLane="random" departSpeed="10" />
<vehicle id="E_W_78" type="standard_car" route="E_W" depart="0" departLane="random" departSpeed="10" />
<vehicle id="W_E_79" type="standard_car" route="W_E" depart="0" departLane="random" departSpeed="10" />
<vehicle id="E_W_80" type="standard_car" route="E_W" depart="0" departLane="random" departSpeed="10" />
<vehicle id="E_W_81" type="standard_car" route="E_W" depart="0" departLane="random" departSpeed="10" />
<vehicle id="W_E_82" type="standard_car" route="W_E" depart="0" departLane="random" departSpeed="10" />
<vehicle id="N_S_83" type="standard_car" route="N_S" depart="0" departLane="random" departSpeed="10" />
<vehicle id="N_S_84" type="standard_car" route="N_S" depart="0" departLane="random" departSpeed="10" />
<vehicle id="E_W_85" type="standard_car" route="E_W" depart="0" departLane="random" departSpeed="10" />
<vehicle id="N_S_86" type="standard_car" route="N_S" depart="0" departLane="random" departSpeed="10" />
<vehicle id="W_E_87" type="standard_car" route="W_E" depart="0" departLane="random" departSpeed="10" />
<vehicle id="N_S_88" type="standard_car" route="N_S" depart="0" departLane="random" departSpeed="10" />
<vehicle id="S_N_89" type="standard_car" route="S_N" depart="0" departLane="random" departSpeed="10" />
<vehicle id="E_W_90" type="standard_car" route="E_W" depart="0" departLane="random" departSpeed="10" />
<vehicle id="N_S_91" type="standard_car" route="N_S" depart="0" departLane="random" departSpeed="10" />
<vehicle id="W_E_92" type="standard_car" route="W_E" depart="0" departLane="random" departSpeed="10" />
<vehicle id="S_N_93" type="standard_car" route="S_N" depart="0" departLane="random" departSpeed="10" />
<vehicle id="E_W_94" type="standard_car" route="E_W" depart="0" departLane="random" departSpeed="10" />
<vehicle id="W_E_95" type="standard_car" route="W_E" depart="0" departLane="random" departSpeed="10" />
<vehicle id="N_S_96" type="standard_car" route="N_S" depart="0" departLane="random" departSpeed="10" />
<vehicle id="W_E_97" type="standard_car" route="W_E" depart="0" departLane="random" departSpeed="10" />
<vehicle id="S_N_98" type="standard_car" route="S_N" depart="0" departLane="random" departSpeed="10" />
<vehicle id="W_E_99" type="standard_car" route="W_E" depart="0" departLane="random" departSpeed="10" />
<vehicle id="N_S_100" type="standard_car" route="N_S" depart="0" departLane="random" departSpeed="10" />
<vehicle id="E_W_101" type="standard_car" route="E_W" depart="0" departLane="random" departSpeed="10" />
<vehicle id="S_N_102" type="standard_car" route="S_N" depart="0" departLane="random" departSpeed="10" />
<vehicle id="S_N_103" type="standard_car" route="S_N" depart="0" departLane="random" departSpeed="10" />
<vehicle id="E_W_104" type="standard_car" route="E_W" depart="0" departLane="random" departSpeed="10" />
<vehicle id="N_S_105" type="standard_car" route="N_S" depart="0" departLane="random" departSpeed="10" />
<vehicle id="N_S_106" type="standard_car" route="N_S" depart="0" departLane="random" departSpeed="10" />
<vehicle id="N_S_107" type="standard_car" route="N_S" depart="0" departLane="random" departSpeed="10" />
<vehicle id="E_W_108" type="standard_car" route="E_W" depart="0" departLane="random" departSpeed="10" />
<vehicle id="S_N_109" type="standard_car" route="S_N" depart="0" departLane="random" departSpeed="10" />
<vehicle id="E_W_110" type="standard_car" route="E_W" depart="0" departLane="random" departSpeed="10" />
<vehicle id="S_N_111" type="standard_car" route="S_N" depart="0" departLane="random" departSpeed="10" />
<vehicle id="N_S_112" type="standard_car" route="N_S" depart="0" departLane="random" departSpeed="10" />
<vehicle id="E_W_113" type="standard_car" route="E_W" depart="0" departLane="random" departSpeed="10" />
<vehicle id="S_N_114" type="standard_car" route="S_N" depart="0" departLane="random" departSpeed="10" />
<vehicle id="E_W_115" type="standard_car" route="E_W" depart="0" departLane="random" departSpeed="10" />
<vehicle id="S_N_116" type="standard_car" route="S_N" depart="0" departLane="random" departSpeed="10" />
<vehicle id="N_S_117" type="standard_car" route="N_S" depart="0" departLane="random" departSpeed="10" />
<vehicle id="S_N_118" type="standard_car" route="S_N" depart="0" departLane="random" departSpeed="10" />
<vehicle id="N_S_119" type="standard_car" route="N_S" depart="0" departLane="random" departSpeed="10" />
<vehicle id="S_N_120" type="standard_car" route="S_N" depart="0" departLane="random" departSpeed="10" />
<vehicle id="N_S_121" type="standard_car" route="N_S" depart="0" departLane="random" departSpeed="10" />
<vehicle id="S_N_122" type="standard_car" route="S_N" depart="0" departLane="random" departSpeed="10" />
<vehicle id="N_S_123" type="standard_car" route="N_S" depart="0" departLane="random" departSpeed="10" />
<vehicle id="E_W_124" type="standard_car" route="E_W" depart="0" departLane="random" departSpeed="10" />
<vehicle id="N_S_125" type="standard_car" route="N_S" depart="0" departLane="random" departSpeed="10" />
<vehicle id="W_E_126" type="standard_car" route="W_E" depart="0" departLane="random" departSpeed="10" />
<vehicle id="E_W_127" type="standard_car" route="E_W" depart="0" departLane="random" departSpeed="10" />
<vehicle id="N_S_128" type="standard_car" route="N_S" depart="0" departLane="random" departSpeed="10" />
<vehicle id="E_W_129" type="standard_car" route="E_W" depart="0" departLane="random" departSpeed="10" />
<vehicle id="N_S_130" type="standard_car" route="N_S" depart="0" departLane="random" departSpeed="10" />
<vehicle id="E_W_131" type="standard_car" route="E_W" depart="0" departLane="random" departSpeed="10" />
<vehicle id="W_E_132" type="standard_car" route="W_E" depart="0" departLane="random" departSpeed="10" />
<vehicle id="E_W_133" type="standard_car" route="E_W" depart="0" departLane="random" departSpeed="10" />
<vehicle id="N_S_134" type="standard_car" route="N_S" depart="0" departLane="random" departSpeed="10" />
<vehicle id="N_S_135" type="standard_car" route="N_S" depart="0" departLane="random" departSpeed="10" />
<vehicle id="N_S_136" type="standard_car" route="N_S" depart="0" departLane="random" departSpeed="10" />
<vehicle id="N_S_137" type="standard_car" route="N_S" depart="0" departLane="random" departSpeed="10" />
<vehicle id="N_S_138" type="standard_car" route="N_S" depart="0" departLane="random" departSpeed="10" />
<vehicle id="E_W_139" type="standard_car" route="E_W" depart="0" departLane="random" departSpeed="10" />
<vehicle id="S_N_140" type="standard_car" route="S_N" depart="0" departLane="random" departSpeed="10" />
<vehicle id="E_W_141" type="standard_car" route="E_W" depart="0" departLane="random" departSpeed="10" />
<vehicle id="E_W_142" type="standard_car" route="E_W" depart="0" departLane="random" departSpeed="10" />
<vehicle id="S_N_143" type="standard_car" route="S_N" depart="0" departLane="random" departSpeed="10" />
<vehicle id="S_N_144" type="standard_car" route="S_N" depart="0" departLane="random" departSpeed="10" />
<vehicle id="S_N_145" type="standard_car" route="S_N" depart="0" departLane="random" departSpeed="10" />
<vehicle id="W_E_146" type="standard_car" route="W_E" depart="0" departLane="random" departSpeed="10" />
<vehicle id="S_N_147" type="standard_car" route="S_N" depart="0" departLane="random" departSpeed="10" />
<vehicle id="S_N_148" type="standard_car" route="S_N" depart="0" departLane="random" departSpeed="10" />
<vehicle id="S_N_149" type="standard_car" route="S_N" depart="0" departLane="random" departSpeed="10" />
<vehicle id="W_E_150" type="standard_car" route="W_E" depart="0" departLane="random" departSpeed="10" />
<vehicle id="S_N_151" type="standard_car" route="S_N" depart="0" departLane="random" departSpeed="10" />
<vehicle id="W_E_152" type="standard_car" route="W_E" depart="0" departLane="random" departSpeed="10" />
<vehicle id="N_S_153" type="standard_car" route="N_S" depart="0" departLane="random" departSpeed="10" />
<vehicle id="W_E_154" type="standard_car" route="W_E" depart="0" departLane="random" departSpeed="10" />
<vehicle id="S_N_155" type="standard_car" route="S_N" depart="0" departLane="random" departSpeed="10" />
<vehicle id="S_N_156" type="standard_car" route="S_N" depart="0" departLane="random" departSpeed="10" />
<vehicle id="N_S_157" type="standard_car" route="N_S" depart="0" departLane="random" departSpeed="10" />
<vehicle id="E_W_158" type="standard_car" route="E_W" depart="0" departLane="random" departSpeed="10" />
<vehicle id="W_E_159" type="standard_car" route="W_E" depart="0" departLane="random" departSpeed="10" />
<vehicle id="N_S_160" type="standard_car" route="N_S" depart="0" departLane="random" departSpeed="10" />
<vehicle id="N_S_161" type="standard_car" route="N_S" depart="0" departLane="random" departSpeed="10" />
<vehicle id="S_N_162" type="standard_car" route="S_N" depart="0" departLane="random" departSpeed="10" />
<vehicle id="S_N_163" type="standard_car" route="S_N" depart="0" departLane="random" departSpeed="10" />
<vehicle id="S_N_164" type="standard_car" route="S_N" depart="0" departLane="random" departSpeed="10" />
<vehicle id="S_N_165" type="standard_car" route="S_N" depart="0" departLane="random" departSpeed="10" />
<vehicle id="W_E_166" type="standard_car" route="W_E" depart="0" departLane="random" departSpeed="10" />
<vehicle id="E_W_167" type="standard_car" route="E_W" depart="0" departLane="random" departSpeed="10" />
<vehicle id="S_N_168" type="standard_car" route="S_N" depart="0" departLane="random" departSpeed="10" />
<vehicle id="W_E_169" type="standard_car" route="W_E" depart="0" departLane="random" departSpeed="10" />
<vehicle id="N_S_170" type="standard_car" route="N_S" depart="0" departLane="random" departSpeed="10" />
<vehicle id="W_E_171" type="standard_car" route="W_E" depart="0" departLane="random" departSpeed="10" />
<vehicle id="W_E_172" type="standard_car" route="W_E" depart="0" departLane="random" departSpeed="10" />
<vehicle id="W_E_173" type="standard_car" route="W_E" depart="0" departLane="random" departSpeed="10" />
<vehicle id="S_N_174" type="standard_car" route="S_N" depart="0" departLane="random" departSpeed="10" />
<vehicle id="E_W_175" type="standard_car" route="E_W" depart="0" departLane="random" departSpeed="10" />
<vehicle id="E_W_176" type="standard_car" route="E_W" depart="0" departLane="random" departSpeed="10" />
<vehicle id="S_N_177" type="standard_car" route="S_N" depart="0" departLane="random" departSpeed="10" />
<vehicle id="S_N_178" type="standard_car" route="S_N" depart="0" departLane="random" departSpeed="10" />
<vehicle id="W_E_179" type="standard_car" route="W_E" depart="0" departLane="random" departSpeed="10" />
<vehicle id="W_E_180" type="standard_car" route="W_E" depart="0" departLane="random" departSpeed="10" />
<vehicle id="N_S_181" type="standard_car" route="N_S" depart="0" departLane="random" departSpeed="10" />
<vehicle id="N_S_182" type="standard_car" route="N_S" depart="0" departLane="random" departSpeed="10" />
<vehicle id="E_W_183" type="standard_car" route="E_W" depart="0" departLane="random" departSpeed="10" />
<vehicle id="S_N_184" type="standard_car" route="S_N" depart="0" departLane="random" departSpeed="10" />
<vehicle id="N_S_185" type="standard_car" route="N_S" depart="0" departLane="random" departSpeed="10" />
<vehicle id="N_S_186" type="standard_car" route="N_S" depart="0" departLane="random" departSpeed="10" />
<vehicle id="N_S_187" type="standard_car" route="N_S" depart="0" departLane="random" departSpeed="10" />
<vehicle id="S_N_188" type="standard_car" route="S_N" depart="0" departLane="random" departSpeed="10" />
<vehicle id="E_W_189" type="standard_car" route="E_W" depart="0" departLane="random" departSpeed="10" />
<vehicle id="E_W_190" type="standard_car" route="E_W" depart="0" departLane="random" departSpeed="10" />
<vehicle id="E_W_191" type="standard_car" route="E_W" depart="0" departLane="random" departSpeed="10" />
<vehicle id="W_E_192" type="standard_car" route="W_E" depart="0" departLane="random" departSpeed="10" />
<vehicle id="S_N_193" type="standard_car" route="S_N" depart="0" departLane="random" departSpeed="10" />
<vehicle id="S_N_194" type="standard_car" route="S_N" depart="0" departLane="random" departSpeed="10" />
<vehicle id="N_S_195" type="standard_car" route="N_S" depart="0" departLane="random" departSpeed="10" />
<vehicle id="E_W_196" type="standard_car" route="E_W" depart="0" departLane="random" departSpeed="10" />
<vehicle id="E_W_197" type="standard_car" route="E_W" depart="0" departLane="random" departSpeed="10" />
<vehicle id="W_E_198" type="standard_car" route="W_E" depart="0" departLane="random" departSpeed="10" />
<vehicle id="E_W_199" type="standard_car" route="E_W" depart="0" departLane="random" departSpeed="10" />
<vehicle id="E_W_200" type="standard_car" route="E_W" depart="0" departLane="random" departSpeed="10" />
<vehicle id="N_S_201" type="standard_car" route="N_S" depart="0" departLane="random" departSpeed="10" />
<vehicle id="E_W_202" type="standard_car" route="E_W" depart="0" departLane="random" departSpeed="10" />
<vehicle id="W_E_203" type="standard_car" route="W_E" depart="0" departLane="random" departSpeed="10" />
<vehicle id="W_E_204" type="standard_car" route="W_E" depart="0" departLane="random" departSpeed="10" />
<vehicle id="W_E_205" type="standard_car" route="W_E" depart="0" departLane="random" departSpeed="10" />
<vehicle id="N_S_206" type="standard_car" route="N_S" depart="0" departLane="random" departSpeed="10" />
<vehicle id="N_S_207" type="standard_car" route="N_S" depart="0" departLane="random" departSpeed="10" />
<vehicle id="N_S_208" type="standard_car" route="N_S" depart="0" departLane="random" departSpeed="10" />
<vehicle id="S_N_209" type="standard_car" route="S_N" depart="0" departLane="random" departSpeed="10" />
<vehicle id="S_N_210" type="standard_car" route="S_N" depart="0" departLane="random" departSpeed="10" />
<vehicle id="E_W_211" type="standard_car" route="E_W" depart="0" departLane="random" departSpeed="10" />
<vehicle id="N_S_212" type="standard_car" route="N_S" depart="0" departLane="random" departSpeed="10" />
<vehicle id="E_W_213" type="standard_car" route="E_W" depart="0" departLane="random" departSpeed="10" />
<vehicle id="W_E_214" type="standard_car" route="W_E" depart="0" departLane="random" departSpeed="10" />
<vehicle id="S_N_215" type="standard_car" route="S_N" depart="0" departLane="random" departSpeed="10" />
<vehicle id="E_W_216" type="standard_car" route="E_W" depart="0" departLane="random" departSpeed="10" />
<vehicle id="E_W_217" type="standard_car" route="E_W" depart="0" departLane="random" departSpeed="10" />
<vehicle id="N_S_218" type="standard_car" route="N_S" depart="0" departLane="random" departSpeed="10" />
<vehicle id="S_N_219" type="standard_car" route="S_N" depart="0" departLane="random" departSpeed="10" />
<vehicle id="N_S_220" type="standard_car" route="N_S" depart="0" departLane="random" departSpeed="10" />
<vehicle id="S_N_221" type="standard_car" route="S_N" depart="0" departLane="random" departSpeed="10" />
<vehicle id="E_W_222" type="standard_car" route="E_W" depart="0" departLane="random" departSpeed="10" />
<vehicle id="S_N_223" type="standard_car" route="S_N" depart="0" departLane="random" departSpeed="10" />
<vehicle id="W_E_224" type="standard_car" route="W_E" depart="0" departLane="random" departSpeed="10" />
<vehicle id="S_N_225" type="standard_car" route="S_N" depart="0" departLane="random" departSpeed="10" />
<vehicle id="N_S_226" type="standard_car" route="N_S" depart="0" departLane="random" departSpeed="10" />
<vehicle id="E_W_227" type="standard_car" route="E_W" depart="0" departLane="random" departSpeed="10" />
<vehicle id="S_N_228" type="standard_car" route="S_N" depart="0" departLane="random" departSpeed="10" />
<vehicle id="S_N_229" type="standard_car" route="S_N" depart="0" departLane="random" departSpeed="10" />
<vehicle id="E_W_230" type="standard_car" route="E_W" depart="0" departLane="random" departSpeed="10" />
<vehicle id="E_W_231" type="standard_car" route="E_W" depart="0" departLane="random" departSpeed="10" />
<vehicle id="N_S_232" type="standard_car" route="N_S" depart="0" departLane="random" departSpeed="10" />
<vehicle id="W_E_233" type="standard_car" route="W_E" depart="0" departLane="random" departSpeed="10" />
<vehicle id="E_W_234" type="standard_car" route="E_W" depart="0" departLane="random" departSpeed="10" />
<vehicle id="E_W_235" type="standard_car" route="E_W" depart="0" departLane="random" departSpeed="10" />
<vehicle id="E_W_236" type="standard_car" route="E_W" depart="0" departLane="random" departSpeed="10" />
<vehicle id="N_S_237" type="standard_car" route="N_S" depart="0" departLane="random" departSpeed="10" />
<vehicle id="E_W_238" type="standard_car" route="E_W" depart="0" departLane="random" departSpeed="10" />
<vehicle id="N_S_239" type="standard_car" route="N_S" depart="0" departLane="random" departSpeed="10" />
<vehicle id="S_N_240" type="standard_car" route="S_N" depart="0" departLane="random" departSpeed="10" />
<vehicle id="W_E_241" type="standard_car" route="W_E" depart="0" departLane="random" departSpeed="10" />
<vehicle id="N_S_242" type="standard_car" route="N_S" depart="0" departLane="random" departSpeed="10" />
<vehicle id="W_E_243" type="standard_car" route="W_E" depart="0" departLane="random" departSpeed="10" />
<vehicle id="S_N_244" type="standard_car" route="S_N" depart="0" departLane="random" departSpeed="10" />
<vehicle id="E_W_245" type="standard_car" route="E_W" depart="0" departLane="random" departSpeed="10" />
<vehicle id="N_S_246" type="standard_car" route="N_S" depart="0" departLane="random" departSpeed="10" />
<vehicle id="W_E_247" type="standard_car" route="W_E" depart="0" departLane="random" departSpeed="10" />
<vehicle id="W_E_248" type="standard_car" route="W_E" depart="0" departLane="random" departSpeed="10" />
<vehicle id="N_S_249" type="standard_car" route="N_S" depart="0" departLane="random" departSpeed="10" />
<vehicle id="E_W_250" type="standard_car" route="E_W" depart="0" departLane="random" departSpeed="10" />
<vehicle id="S_N_251" type="standard_car" route="S_N" depart="0" departLane="random" departSpeed="10" />
<vehicle id="S_N_252" type="standard_car" route="S_N" depart="0" departLane="random" departSpeed="10" />
<vehicle id="S_N_253" type="standard_car" route="S_N" depart="0" departLane="random" departSpeed="10" />
<vehicle id="S_N_254" type="standard_car" route="S_N" depart="0" departLane="random" departSpeed="10" />
<vehicle id="W_E_255" type="standard_car" route="W_E" depart="0" departLane="random" departSpeed="10" />
<vehicle id="N_S_256" type="standard_car" route="N_S" depart="0" departLane="random" departSpeed="10" />
<vehicle id="N_S_257" type="standard_car" route="N_S" depart="0" departLane="random" departSpeed="10" />
<vehicle id="S_N_258" type="standard_car" route="S_N" depart="0" departLane="random" departSpeed="10" />
<vehicle id="E_W_259" type="standard_car" route="E_W" depart="0" departLane="random" departSpeed="10" />
<vehicle id="E_W_260" type="standard_car" route="E_W" depart="0" departLane="random" departSpeed="10" />
<vehicle id="W_E_261" type="standard_car" route="W_E" depart="0" departLane="random" departSpeed="10" />
<vehicle id="W_E_262" type="standard_car" route="W_E" depart="0" departLane="random" departSpeed="10" />
<vehicle id="S_N_263" type="standard_car" route="S_N" depart="0" departLane="random" departSpeed="10" />
<vehicle id="N_S_264" type="standard_car" route="N_S" depart="0" departLane="random" departSpeed="10" />
<vehicle id="S_N_265" type="standard_car" route="S_N" depart="0" departLane="random" departSpeed="10" />
<vehicle id="E_W_266" type="standard_car" route="E_W" depart="0" departLane="random" departSpeed="10" />
<vehicle id="N_S_267" type="standard_car" route="N_S" depart="0" departLane="random" departSpeed="10" />
<vehicle id="W_E_268" type="standard_car" route="W_E" depart="0" departLane="random" departSpeed="10" />
<vehicle id="N_S_269" type="standard_car" route="N_S" depart="0" departLane="random" departSpeed="10" />
<vehicle id="S_N_270" type="standard_car" route="S_N" depart="0" departLane="random" departSpeed="10" />
<vehicle id="S_N_271" type="standard_car" route="S_N" depart="0" departLane="random" departSpeed="10" />
<vehicle id="E_W_272" type="standard_car" route="E_W" depart="0" departLane="random" departSpeed="10" />
<vehicle id="S_N_273" type="standard_car" route="S_N" depart="0" departLane="random" departSpeed="10" />
<vehicle id="E_W_274" type="standard_car" route="E_W" depart="0" departLane="random" departSpeed="10" />
<vehicle id="S_N_275" type="standard_car" route="S_N" depart="0" departLane="random" departSpeed="10" />
<vehicle id="S_N_276" type="standard_car" route="S_N" depart="0" departLane="random" departSpeed="10" />
<vehicle id="S_N_277" type="standard_car" route="S_N" depart="0" departLane="random" departSpeed="10" />
<vehicle id="N_S_278" type="standard_car" route="N_S" depart="0" departLane="random" departSpeed="10" />
<vehicle id="S_N_279" type="standard_car" route="S_N" depart="0" departLane="random" departSpeed="10" />
<vehicle id="E_W_280" type="standard_car" route="E_W" depart="0" departLane="random" departSpeed="10" />
<vehicle id="S_N_281" type="standard_car" route="S_N" depart="0" departLane="random" departSpeed="10" />