<?xml version="1.0" encoding="UTF-8"?>

<configuration xmlns:xsi="http://www.w3.org/2001/XMLSchema-instance" xsi:noNamespaceSchemaLocation="http://sumo.dlr.de/xsd/sumoConfiguration.xsd">

    <input>
        <net-file value="current_small_environment.net.xml"/>
        <route-files value="episode_current_small_environment.rou.xml"/>
    </input>

</configuration>
