<?xml version="1.0" encoding="UTF-8"?>

<!-- generated on lun. 16 mai 2022 16:43:15 CEST by Eclipse SUMO netedit Version v1_1_0+0000-2147d155b1
<configuration xmlns:xsi="http://www.w3.org/2001/XMLSchema-instance" xsi:noNamespaceSchemaLocation="http://sumo.dlr.de/xsd/netconvertConfiguration.xsd">

    <input>
        <sumo-net-file value="/home/richard/Desktop/newVersionBiscuitResearchProject/new_version_biscuit/TLCS/intersection/current_new_environment.net.xml"/>
    </input>

    <output>
        <output-file value="/home/richard/Desktop/newVersionBiscuitResearchProject/new_version_biscuit/TLCS/intersection/current_new_environment.net.xml"/>
    </output>

    <processing>
        <geometry.max-grade.fix value="false"/>
        <offset.disable-normalization value="true"/>
        <lefthand value="false"/>
    </processing>

    <junctions>
        <no-turnarounds value="true"/>
        <junctions.corner-detail value="5"/>
        <junctions.limit-turn-speed value="5.5"/>
        <rectangular-lane-cut value="false"/>
    </junctions>

    <pedestrian>
        <walkingareas value="false"/>
    </pedestrian>

</configuration>
-->

<net version="1.1" junctionCornerDetail="5" limitTurnSpeed="5.50" xmlns:xsi="http://www.w3.org/2001/XMLSchema-instance" xsi:noNamespaceSchemaLocation="http://sumo.dlr.de/xsd/net_file.xsd">

    <location netOffset="0.00,0.00" convBoundary="-96.17,-46.50,140.49,144.01" origBoundary="-10000000000.00,-10000000000.00,10000000000.00,10000000000.00" projParameter="!"/>

    <edge id=":junction_center_0" function="internal">
        <lane id=":junction_center_0_0" index="0" speed="6.59" length="9.13" shape="34.75,51.58 32.25,51.93 30.45,52.97 29.34,54.70 28.93,57.14"/>
    </edge>
    <edge id=":junction_center_1" function="internal">
        <lane id=":junction_center_1_0" index="0" speed="13.89" length="21.20" shape="34.75,51.58 13.49,51.09"/>
        <lane id=":junction_center_1_1" index="1" speed="13.89" length="21.20" shape="34.76,48.38 13.63,47.89"/>
    </edge>
    <edge id=":junction_center_3" function="internal">
        <lane id=":junction_center_3_0" index="0" speed="6.59" length="9.26" shape="29.18,36.09 29.53,38.66 30.57,40.50 32.32,41.61 34.77,41.98"/>
    </edge>
    <edge id=":junction_center_4" function="internal">
        <lane id=":junction_center_4_0" index="0" speed="13.89" length="21.02" shape="29.18,36.09 28.93,57.14"/>
        <lane id=":junction_center_4_1" index="1" speed="13.89" length="21.02" shape="25.98,36.08 25.73,57.06"/>
    </edge>
    <edge id=":junction_center_6" function="internal">
        <lane id=":junction_center_6_0" index="0" speed="6.42" length="9.04" shape="13.91,41.50 16.39,41.25 18.16,40.27 19.22,38.54 19.58,36.08"/>
    </edge>
    <edge id=":junction_center_7" function="internal">
        <lane id=":junction_center_7_0" index="0" speed="13.89" length="20.93" shape="13.91,41.50 34.77,41.98"/>
        <lane id=":junction_center_7_1" index="1" speed="13.89" length="20.93" shape="13.77,44.70 34.76,45.18"/>
    </edge>
    <edge id=":junction_center_9" function="internal">
        <lane id=":junction_center_9_0" index="0" speed="6.66" length="9.36" shape="19.34,56.92 19.02,54.47 17.94,52.68 16.10,51.55 13.49,51.09"/>
    </edge>
    <edge id=":junction_center_10" function="internal">
        <lane id=":junction_center_10_0" index="0" speed="13.89" length="20.88" shape="19.34,56.92 19.58,36.08"/>
        <lane id=":junction_center_10_1" index="1" speed="13.89" length="20.88" shape="22.53,56.99 22.78,36.08"/>
    </edge>

    <edge id="east_edge_one" from="junction_east" to="junction_center" priority="-1" length="100.00">
        <lane id="east_edge_one_0" index="0" speed="13.89" length="100.00" shape="140.48,51.83 34.75,51.58"/>
        <lane id="east_edge_one_1" index="1" speed="13.89" length="100.00" shape="140.49,48.63 34.76,48.38"/>
    </edge>
    <edge id="east_edge_two" from="junction_center" to="junction_east" priority="-1" length="100.00">
        <lane id="east_edge_two_0" index="0" speed="13.89" length="100.00" shape="34.77,41.98 140.50,42.23"/>
        <lane id="east_edge_two_1" index="1" speed="13.89" length="100.00" shape="34.76,45.18 140.49,45.43"/>
    </edge>
    <edge id="north_edge_one" from="junction_north" to="junction_center" priority="-1" length="100.00">
        <lane id="north_edge_one_0" index="0" speed="13.89" length="100.00" shape="17.34,143.90 19.34,56.92"/>
        <lane id="north_edge_one_1" index="1" speed="13.89" length="100.00" shape="20.54,143.97 22.53,56.99"/>
    </edge>
    <edge id="north_edge_two" from="junction_center" to="junction_north" priority="-1" length="100.00">
        <lane id="north_edge_two_0" index="0" speed="13.89" length="100.00" shape="28.93,57.14 26.94,144.12"/>
        <lane id="north_edge_two_1" index="1" speed="13.89" length="100.00" shape="25.73,57.06 23.74,144.05"/>
    </edge>
    <edge id="south_edge_one" from="junction_south" to="junction_center" priority="-1" length="100.00">
        <lane id="south_edge_one_0" index="0" speed="13.89" length="100.00" shape="29.25,-46.50 29.18,36.09"/>
        <lane id="south_edge_one_1" index="1" speed="13.89" length="100.00" shape="26.05,-46.50 25.98,36.08"/>
    </edge>
    <edge id="south_edge_two" from="junction_center" to="junction_south" priority="-1" length="100.00">
        <lane id="south_edge_two_0" index="0" speed="13.89" length="100.00" shape="19.58,36.08 19.65,-46.50"/>
        <lane id="south_edge_two_1" index="1" speed="13.89" length="100.00" shape="22.78,36.08 22.85,-46.50"/>
    </edge>
    <edge id="west_edge_one" from="junction_west" to="junction_center" priority="-1" length="100.00">
        <lane id="west_edge_one_0" index="0" speed="13.89" length="100.00" shape="-95.96,36.72 13.91,41.50"/>
        <lane id="west_edge_one_1" index="1" speed="13.89" length="100.00" shape="-96.10,39.92 13.77,44.70"/>
    </edge>
    <edge id="west_edge_two" from="junction_center" to="junction_west" priority="-1" length="100.00">
        <lane id="west_edge_two_0" index="0" speed="13.89" length="100.00" shape="13.49,51.09 -96.38,46.32"/>
        <lane id="west_edge_two_1" index="1" speed="13.89" length="100.00" shape="13.63,47.89 -96.24,43.12"/>
    </edge>

    <tlLogic id="junction_center" type="static" programID="0" offset="0">
        <phase duration="40" state="GGGrrrGGGrrr"/>
        <phase duration="40" state="yyyrrryyyrrr"/>
        <phase duration="40" state="rrrGGGrrrGGG"/>
        <phase duration="40" state="rrryyyrrryyy"/>
    </tlLogic>

    <junction id="junction_center" type="traffic_light" x="24.37" y="46.76" incLanes="east_edge_one_0 east_edge_one_1 south_edge_one_0 south_edge_one_1 west_edge_one_0 west_edge_one_1 north_edge_one_0 north_edge_one_1" intLanes=":junction_center_0_0 :junction_center_1_0 :junction_center_1_1 :junction_center_3_0 :junction_center_4_0 :junction_center_4_1 :junction_center_6_0 :junction_center_7_0 :junction_center_7_1 :junction_center_9_0 :junction_center_10_0 :junction_center_10_1" shape="34.75,53.18 34.78,40.38 32.55,39.90 31.78,39.31 31.22,38.47 30.89,37.40 30.78,36.09 17.98,36.08 17.53,38.28 16.98,39.03 16.20,39.55 15.20,39.84 13.98,39.90 13.42,52.69 15.86,53.24 16.70,53.83 17.30,54.64 17.64,55.65 17.74,56.88 30.53,57.17 31.04,54.95 31.63,54.18 32.45,53.62 33.48,53.29">
        <request index="0"  response="000000110000" foes="000000110000" cont="0"/>
        <request index="1"  response="111000110000" foes="111000110000" cont="0"/>
        <request index="2"  response="111000110000" foes="111000110000" cont="0"/>
        <request index="3"  response="000000000000" foes="000110000000" cont="0"/>
        <request index="4"  response="000000000000" foes="000110000111" cont="0"/>
        <request index="5"  response="000000000000" foes="000110000111" cont="0"/>
        <request index="6"  response="110000000000" foes="110000000000" cont="0"/>
        <request index="7"  response="110000111000" foes="110000111000" cont="0"/>
        <request index="8"  response="110000111000" foes="110000111000" cont="0"/>
        <request index="9"  response="000000000000" foes="000000000110" cont="0"/>
        <request index="10" response="000000000000" foes="000111000110" cont="0"/>
        <request index="11" response="000000000000" foes="000111000110" cont="0"/>
    </junction>
    <junction id="junction_east" type="dead_end" x="140.49" y="47.03" incLanes="east_edge_two_0 east_edge_two_1" intLanes="" shape="140.49,47.03 140.50,40.63 140.49,47.03"/>
    <junction id="junction_north" type="dead_end" x="22.14" y="144.01" incLanes="north_edge_two_0 north_edge_two_1" intLanes="" shape="22.14,144.01 28.54,144.16 22.14,144.01"/>
    <junction id="junction_south" type="dead_end" x="24.45" y="-46.50" incLanes="south_edge_two_0 south_edge_two_1" intLanes="" shape="24.45,-46.50 18.05,-46.51 24.45,-46.50"/>
    <junction id="junction_west" type="dead_end" x="-96.17" y="41.52" incLanes="west_edge_two_0 west_edge_two_1" intLanes="" shape="-96.17,41.52 -96.45,47.91 -96.17,41.52"/>

    <connection from="east_edge_one" to="north_edge_two" fromLane="0" toLane="0" via=":junction_center_0_0" tl="junction_center" linkIndex="0" dir="r" state="o"/>
    <connection from="east_edge_one" to="west_edge_two" fromLane="0" toLane="0" via=":junction_center_1_0" tl="junction_center" linkIndex="1" dir="s" state="o"/>
    <connection from="east_edge_one" to="west_edge_two" fromLane="1" toLane="1" via=":junction_center_1_1" tl="junction_center" linkIndex="2" dir="s" state="o"/>
    <connection from="north_edge_one" to="west_edge_two" fromLane="0" toLane="0" via=":junction_center_9_0" tl="junction_center" linkIndex="9" dir="r" state="O"/>
    <connection from="north_edge_one" to="south_edge_two" fromLane="0" toLane="0" via=":junction_center_10_0" tl="junction_center" linkIndex="10" dir="s" state="O"/>
    <connection from="north_edge_one" to="south_edge_two" fromLane="1" toLane="1" via=":junction_center_10_1" tl="junction_center" linkIndex="11" dir="s" state="O"/>
    <connection from="south_edge_one" to="east_edge_two" fromLane="0" toLane="0" via=":junction_center_3_0" tl="junction_center" linkIndex="3" dir="r" state="O"/>
    <connection from="south_edge_one" to="north_edge_two" fromLane="0" toLane="0" via=":junction_center_4_0" tl="junction_center" linkIndex="4" dir="s" state="O"/>
    <connection from="south_edge_one" to="north_edge_two" fromLane="1" toLane="1" via=":junction_center_4_1" tl="junction_center" linkIndex="5" dir="s" state="O"/>
    <connection from="west_edge_one" to="south_edge_two" fromLane="0" toLane="0" via=":junction_center_6_0" tl="junction_center" linkIndex="6" dir="r" state="o"/>
    <connection from="west_edge_one" to="east_edge_two" fromLane="0" toLane="0" via=":junction_center_7_0" tl="junction_center" linkIndex="7" dir="s" state="o"/>
    <connection from="west_edge_one" to="east_edge_two" fromLane="1" toLane="1" via=":junction_center_7_1" tl="junction_center" linkIndex="8" dir="s" state="o"/>

    <connection from=":junction_center_0" to="north_edge_two" fromLane="0" toLane="0" dir="r" state="M"/>
    <connection from=":junction_center_1" to="west_edge_two" fromLane="0" toLane="0" dir="s" state="M"/>
    <connection from=":junction_center_1" to="west_edge_two" fromLane="1" toLane="1" dir="s" state="M"/>
    <connection from=":junction_center_3" to="east_edge_two" fromLane="0" toLane="0" dir="r" state="M"/>
    <connection from=":junction_center_4" to="north_edge_two" fromLane="0" toLane="0" dir="s" state="M"/>
    <connection from=":junction_center_4" to="north_edge_two" fromLane="1" toLane="1" dir="s" state="M"/>
    <connection from=":junction_center_6" to="south_edge_two" fromLane="0" toLane="0" dir="r" state="M"/>
    <connection from=":junction_center_7" to="east_edge_two" fromLane="0" toLane="0" dir="s" state="M"/>
    <connection from=":junction_center_7" to="east_edge_two" fromLane="1" toLane="1" dir="s" state="M"/>
    <connection from=":junction_center_9" to="west_edge_two" fromLane="0" toLane="0" dir="r" state="M"/>
    <connection from=":junction_center_10" to="south_edge_two" fromLane="0" toLane="0" dir="s" state="M"/>
    <connection from=":junction_center_10" to="south_edge_two" fromLane="1" toLane="1" dir="s" state="M"/>

</net>
